
 + + + + + + + + + + + + + + + + + + + + + + + + + + + + + + + + + + + + + + + +
 + + + + + + + + + + + + + + + + + + + + + + + + + + + + + + + + + + + + + + + +
 + +                                                                         + +
 + +                      ASPEN PLUS CALCULATION HISTORY                     + +
 + +                                                                         + +
 + + + + + + + + + + + + + + + + + + + + + + + + + + + + + + + + + + + + + + + +
 + + + + + + + + + + + + + + + + + + + + + + + + + + + + + + + + + + + + + + + +

 ASPEN PLUS IS A TRADEMARK OF           HOTLINE:
 ASPEN TECHNOLOGY, INC.                 U.S.A. 888/996-7100
 781/221-6400                           EUROPE (44) 1189-226555

 PLATFORM: WINDOWS                                       JUNE 21, 2023       
 VERSION: 36.0   Build 249                               WEDNESDAY   
 INSTALLATION:                                           5:47:19 P.M.        

 THIS COPY OF ASPEN PLUS LICENSED TO RWTH AACHEN UNIVERSITY          


      ASPEN PLUS (R) IS A PROPRIETARY PRODUCT OF ASPEN TECHNOLOGY, INC.
      (ASPENTECH), AND MAY BE USED ONLY UNDER AGREEMENT WITH ASPENTECH.
      RESTRICTED RIGHTS LEGEND:  USE, REPRODUCTION, OR DISCLOSURE BY THE
      U.S. GOVERNMENT IS SUBJECT TO RESTRICTIONS SET FORTH IN 
      (i) FAR 52.227-14, Alt. III, (ii) FAR 52.227-19, (iii) DFARS 
      252.227-7013(c)(1)(ii), or (iv) THE ACCOMPANYING LICENSE AGREEMENT,
      AS APPLICABLE. FOR PURPOSES OF THE FAR, THIS SOFTWARE SHALL BE DEEMED
      TO BE "UNPUBLISHED" AND LICENSED WITH DISCLOSURE PROHIBITIONS.
      CONTRACTOR/SUBCONTRACTOR: ASPEN TECHNOLOGY, INC. 20 CROSBY DRIVE,
      BEDFORD, MA 01730.
 *** INPUT SUMMARY ***

 >>CURRENT RUN

   ORIGINAL RUN                           JUNE 21, 2023       
   5:47:19 P.M.                           WEDNESDAY   
   INPUT FILE: _0302tbl.inm
   RUN ID : _0302tbl
          1    ;
          2    ;Input file created by Aspen Plus Rel. 36.0 at 17:47:17 Wed Jun 21, 2023
          3    ;Directory U:\Project File\Rigorous Model Methanol Synthesis  Runid RIGOROUS MODEL METHANOL SYNTHESIS
          4    ;
          5
          6
          7    DYNAMICS
          8        DYNAMICS RESULTS=ON
          9
         10    IN-UNITS MET PRESSURE=bar TEMPERATURE=C DELTA-T=C PDROP=bar  &
         11            INVERSE-PRES='1/bar' SHORT-LENGTH=mm
         12
         13    DEF-STREAMS CONVEN ALL
         14
         15    MODEL-OPTION
         16
         17    DATABANKS 'APV100 PURE36' / 'APV100 AQUEOUS' / 'APV100 SOLIDS' &
         18             / 'APV100 INORGANIC' / 'APESV100 AP-EOS' /  &
         19            'NISTV100 NIST-TRC' / NOASPENPCD
         20
         21    PROP-SOURCES 'APV100 PURE36' / 'APV100 AQUEOUS' /  &
         22            'APV100 SOLIDS' / 'APV100 INORGANIC' / 'APESV100 AP-EOS' &
         23             / 'NISTV100 NIST-TRC'
         24
         25    COMPONENTS
         26        H2 H2 /
         27        CO CO /
         28        CO2 CO2 /
         29        CH4 CH4 /
         30        N2 N2 /
         31        H2O H2O /
         32        CH3OH CH4O /
         33        O2 O2
         34
         35    SOLVE
         36        RUN-MODE MODE=SIM
         37
         38    FLOWSHEET
         39        BLOCK RPLUG IN=R-IN H20-IN OUT=R-OUT HEATX-IN
         40        BLOCK SPLIT-1 IN=TO-SPLIT OUT=PURGE RECYCLE
         41        BLOCK MIXER IN=TO-MIX SYNGAS OUT=MIX-OUT
         42        BLOCK FLASH-1 IN=S3 OUT=TO-SPLIT FLASH1-L
         43        BLOCK B1 IN=S4 OUT=R-IN
         44        BLOCK B2 IN=RECYCLE OUT=TO-MIX
         45        BLOCK FLASH-2 IN=FLASH1-L OUT=FLASH2-V FLASH2-L
         46        BLOCK HX-FL1 IN=S6 OUT=S3
         47        BLOCK HEATX-1 IN=HEATX-IN MIX-OUT OUT=HTX1-OUT S4
         48        BLOCK HEATX-2 IN=R-OUT HTX1-OUT OUT=S6 HTX2-OUT
         49        BLOCK HEATX-3 IN=HTX2-OUT FLASH2-L OUT=HOT-H2O TO-DSTL
         50        BLOCK H2OCONDS IN=HOT-H2O OUT=H2O-POND
         51        BLOCK COMP1 IN=TO-COMPR OUT=S5
         52        BLOCK COOLER-1 IN=S5 OUT=S7
         53        BLOCK COMP-2 IN=S7 OUT=S8
         54        BLOCK COOLER-2 IN=S8 OUT=S9
         55        BLOCK B11 IN=S10 OUT=SYNGAS
         56        BLOCK COMP-3 IN=S14 OUT=S10
         57        BLOCK RADFRAC IN=TO-DSTL OUT=MEOH WATER
         58        BLOCK COMPR-FL IN=S9 OUT=S14 COMP-H2O
         59        BLOCK MIX-FLME IN=PURGE FLASH2-V OUT=TO-FLAME
         60        BLOCK B4 IN=TO-FLAME S2 OUT=S1
         61
         62    PROPERTIES RKSMHV2
         63        PROPERTIES NRTL / SRK
         64
         65    PROP-DATA BWRKT-1
         66        IN-UNITS MET PRESSURE=bar TEMPERATURE=C DELTA-T=C PDROP=bar  &
         67            INVERSE-PRES='1/bar' SHORT-LENGTH=mm
         68        PROP-LIST BWRKT
         69        BPVAL H2 CO .4534900000
         70        BPVAL H2 CO2 -.3993500000
         71        BPVAL H2 CH4 -.4387400000
         72        BPVAL H2 N2 -.0837800000
         73        BPVAL H2 H2O -.3556800000
         74        BPVAL CO H2 .4534900000
         75        BPVAL CO2 CH4 8.78000000E-3
         76        BPVAL CO2 N2 -.0892100000
         77        BPVAL CO2 H2O -.0795000000
         78        BPVAL CO2 H2 -.3993500000
         79        BPVAL CH4 CO2 8.78000000E-3
         80        BPVAL CH4 N2 .0361900000
         81        BPVAL CH4 H2O .7872800000
         82        BPVAL CH4 H2 -.4387400000
         83        BPVAL N2 CO2 -.0892100000
         84        BPVAL N2 CH4 .0361900000
         85        BPVAL N2 H2O -.3032300000
         86        BPVAL N2 H2 -.0837800000
         87        BPVAL H2O CO2 -.0795000000
         88        BPVAL H2O CH4 .7872800000
         89        BPVAL H2O N2 -.3032300000
         90        BPVAL H2O H2 -.3556800000
         91
         92    PROP-DATA BWRKV-1
         93        IN-UNITS MET PRESSURE=bar TEMPERATURE=C DELTA-T=C PDROP=bar  &
         94            INVERSE-PRES='1/bar' SHORT-LENGTH=mm
         95        PROP-LIST BWRKV
         96        BPVAL H2 CO -.1097400000
         97        BPVAL H2 CO2 .0156200000
         98        BPVAL H2 CH4 -.1277700000
         99        BPVAL H2 N2 -.0211600000
        100        BPVAL H2 H2O .1535100000
        101        BPVAL CO H2 -.1097400000
        102        BPVAL CO2 CH4 .0106700000
        103        BPVAL CO2 N2 -7.1500000E-3
        104        BPVAL CO2 H2O .0605100000
        105        BPVAL CO2 H2 .0156200000
        106        BPVAL CH4 CO2 .0106700000
        107        BPVAL CH4 N2 -.0339900000
        108        BPVAL CH4 H2O .2553200000
        109        BPVAL CH4 H2 -.1277700000
        110        BPVAL N2 CO2 -7.1500000E-3
        111        BPVAL N2 CH4 -.0339900000
        112        BPVAL N2 H2O .1032000000
        113        BPVAL N2 H2 -.0211600000
        114        BPVAL H2O CO2 .0605100000
        115        BPVAL H2O CH4 .2553200000
        116        BPVAL H2O N2 .1032000000
        117        BPVAL H2O H2 .1535100000
        118
        119    PROP-DATA NRTL-1
        120        IN-UNITS MET PRESSURE=bar TEMPERATURE=C DELTA-T=C PDROP=bar  &
        121            INVERSE-PRES='1/bar' SHORT-LENGTH=mm
        122        PROP-LIST NRTL
        123        BPVAL H2O CH3OH 2.732200000 -617.2687000 .3000000000 0.0  &
        124            0.0 0.0 24.99000000 100.0000000
        125        BPVAL CH3OH H2O -.6930000000 172.9871000 .3000000000 0.0  &
        126            0.0 0.0 24.99000000 100.0000000
        127
        128    PROP-DATA SRKKIJ-1
        129        IN-UNITS MET PRESSURE=bar TEMPERATURE=C DELTA-T=C PDROP=bar  &
        130            INVERSE-PRES='1/bar' SHORT-LENGTH=mm
        131        PROP-LIST SRKKIJ
        132        BPVAL H2 CH4 -.0244851000 0.0 0.0 -273.1500000 726.8500000
        133        BPVAL CH4 H2 -.0244851000 0.0 0.0 -273.1500000 726.8500000
        134        BPVAL CO CO2 -.0154400000 0.0 0.0 -273.1500000 726.8500000
        135        BPVAL CO2 CO -.0154400000 0.0 0.0 -273.1500000 726.8500000
        136
        137    STREAM H20-IN
        138        SUBSTREAM MIXED TEMP=20. PRES=10. MASS-FLOW=120000.
        139        MOLE-FLOW H2O 1.
        140
        141    STREAM S2
        142        SUBSTREAM MIXED TEMP=500. PRES=1. MASS-FLOW=200000.
        143        MOLE-FLOW N2 0.79 / O2 0.21
        144
        145    STREAM TO-COMPR
        146        SUBSTREAM MIXED TEMP=50. PRES=29. MASS-FLOW=12000. <tons/day>
        147        MOLE-FRAC H2 67.0832 / CO 14.6364 / CO2 12.1632 / CH4  &
        148            5.40244 / N2 0.306 / H2O 0.408797
        149
        150    BLOCK MIX-FLME MIXER
        151        PARAM
        152
        153    BLOCK MIXER MIXER
        154        PARAM MAXIT=50
        155
        156    BLOCK SPLIT-1 FSPLIT
        157        FRAC PURGE 0.0755
        158
        159    BLOCK B1 HEATER
        160        PARAM TEMP=250. PRES=75. DPPARMOPT=YES
        161
        162    BLOCK B11 HEATER
        163        PARAM TEMP=50. PRES=75. DPPARMOPT=NO
        164
        165    BLOCK COOLER-1 HEATER
        166        PARAM TEMP=50. PRES=40. DPPARMOPT=NO
        167
        168    BLOCK COOLER-2 HEATER
        169        PARAM TEMP=50. PRES=55. DPPARMOPT=NO
        170
        171    BLOCK H2OCONDS HEATER
        172        PARAM TEMP=20. PRES=10. DPPARMOPT=NO
        173
        174    BLOCK HX-FL1 HEATER
        175        PARAM TEMP=35. PRES=75. DPPARMOPT=NO
        176
        177    BLOCK COMPR-FL FLASH2
        178        PARAM TEMP=50. PRES=55.
        179
        180    BLOCK FLASH-1 FLASH2
        181        PARAM TEMP=35. PRES=73.4
        182
        183    BLOCK FLASH-2 FLASH2
        184        PARAM TEMP=37. PRES=1.
        185
        186    BLOCK HEATX-1 HEATX
        187        PARAM T-HOT=50. TYPE=MULTIPASS F-OPTION=CALCULATED  &
        188            NUM-SHELLS=10.
        189        FEEDS HOT=HEATX-IN COLD=MIX-OUT
        190        OUTLETS-HOT HTX1-OUT
        191        OUTLETS-COLD S4
        192        HOT-SIDE DPPARMOPT=NO
        193        COLD-SIDE DPPARMOPT=NO
        194        TQ-PARAM CURVE=YES
        195
        196    BLOCK HEATX-2 HEATX
        197        PARAM T-HOT=270.
        198        FEEDS HOT=R-OUT COLD=HTX1-OUT
        199        OUTLETS-HOT S6
        200        OUTLETS-COLD HTX2-OUT
        201        HOT-SIDE DPPARMOPT=NO
        202        COLD-SIDE DPPARMOPT=NO
        203        TQ-PARAM CURVE=YES
        204
        205    BLOCK HEATX-3 HEATX
        206        PARAM T-COLD=65.
        207        FEEDS HOT=HTX2-OUT COLD=FLASH2-L
        208        OUTLETS-HOT HOT-H2O
        209        OUTLETS-COLD TO-DSTL
        210        HOT-SIDE DPPARMOPT=NO
        211        COLD-SIDE DPPARMOPT=NO
        212        TQ-PARAM CURVE=YES
        213
        214    BLOCK RADFRAC RADFRAC
        215        PARAM NSTAGE=10 ALGORITHM=STANDARD MAXOL=25 DAMPING=NONE
        216        COL-CONFIG CONDENSER=TOTAL
        217        FEEDS TO-DSTL 7
        218        PRODUCTS MEOH 1 L / WATER 10 L
        219        P-SPEC 1 1.
        220        COL-SPECS D:F=0.692086 MOLE-RR=1.05
        221
        222    BLOCK B4 RSTOIC
        223        PARAM TEMP=500. PRES=73.
        224        STOIC 1 MIXED CH4 -1. / O2 -2. / CO2 1. / H2O 2.
        225        STOIC 2 MIXED CH3OH -2. / O2 -3. / CO2 2. / H2O 4.
        226        STOIC 3 MIXED CO -1. / O2 -0.5 / CO2 1.
        227        CONV 1 MIXED CH4 0.8
        228        CONV 2 MIXED CH3OH 0.7
        229        CONV 3 MIXED CO 0.9
        230
        231    BLOCK RPLUG RPLUG
        232        PARAM TYPE=CO-COOL NTUBE=1200 LENGTH=15. DIAM=0.1  &
        233            U=1. <kW/sqm-K> NPOINT=50 CAT-PRESENT=YES BED-VOIDAGE=0.4  &
        234            CAT-RHO=1775. <kg/cum> OPT-DIA=CONSTANT
        235        REACTIONS RXN-IDS=R-1
        236        ADV-PROFILES DISCR-METH=CFD2
        237
        238    BLOCK B2 COMPR
        239        PARAM TYPE=ISENTROPIC PRES=75. SB-MAXIT=30 SB-TOL=0.0001
        240
        241    BLOCK COMP-2 COMPR
        242        PARAM TYPE=ISENTROPIC PRATIO=1.37 SB-MAXIT=30 SB-TOL=0.0001
        243
        244    BLOCK COMP-3 COMPR
        245        PARAM TYPE=ISENTROPIC PRATIO=1.37 SB-MAXIT=30 SB-TOL=0.0001
        246
        247    BLOCK COMP1 COMPR
        248        PARAM TYPE=ISENTROPIC PRATIO=1.37 SB-MAXIT=30 SB-TOL=0.0001
        249
        250    EO-CONV-OPTI
        251
        252    CONV-OPTIONS
        253        PARAM TOL=0.001
        254        WEGSTEIN MAXIT=200
        255
        256    TEAR
        257        TEAR R-IN
        258
        259    STREAM-REPOR MOLEFLOW
        260
        261    REACTIONS R-1 LHHW
        262        REAC-DATA 1 PHASE=V CBASIS=PARTIALPRES RBASIS=CAT-WT
        263        REAC-DATA 2 PHASE=V CBASIS=PARTIALPRES RBASIS=CAT-WT
        264        RATE-CON 1 PRE-EXP=1. ACT-ENERGY=0.0
        265        RATE-CON 2 PRE-EXP=1. ACT-ENERGY=0.0
        266        STOIC 1 MIXED CO2 -1. / H2 -3. / CH3OH 1. / H2O 1.
        267        STOIC 2 MIXED CO2 -1. / H2 -1. / CO 1. / H2O 1.
        268        DFORCE-EXP-1 1 MIXED CO2 1. / MIXED H2 1. / MIXED  &
        269            CH3OH 0. / MIXED H2O 0.
        270        DFORCE-EXP-1 2 MIXED CO2 1. / MIXED H2 0. / MIXED CO  &
        271            0. / MIXED H2O 0.
        272        DFORCE-EXP-2 1 MIXED CO2 0. / MIXED H2 -2. / MIXED  &
        273            CH3OH 1. / MIXED H2O 1.
        274        DFORCE-EXP-2 2 MIXED CO2 0. / MIXED H2 -1. / MIXED CO  &
        275            1. / MIXED H2O 1.
        276        DFORCE-EQ-1 REACNO=1 A=-29.87 B=4811.2 / REACNO=2 A=4.804  &
        277            B=-11797.5
        278        DFORCE-EQ-2 REACNO=1 A=17.55 B=-2249.8 / REACNO=2 A=0.131  &
        279            B=-7023.5
        280        ADSORP-EXP REACNO=1 CID=H2 SSID=MIXED EXPONENT=0. 0.5 0.  &
        281            -1. / REACNO=1 CID=H2O SSID=MIXED EXPONENT=0. 0. 1.  &
        282            1. / REACNO=2 CID=H2 SSID=MIXED EXPONENT=0. -1. 0.5  &
        283            0. / REACNO=2 CID=H2O SSID=MIXED EXPONENT=0. 1. 0.  &
        284            1.
        285        ADSORP-EQTER REACNO=1 TERM= 1 A=0. / REACNO=1 TERM= 2  &
        286            A=-6.452 B=2068.4 / REACNO=1 TERM= 3 A=-34.95  &
        287            B=14928.9 / REACNO=1 TERM= 4 A=8.1471087 / REACNO=2  &
        288            TERM= 1 A=0. / REACNO=2 TERM= 2 A=8.147 / REACNO=2  &
        289            TERM= 3 A=-6.452 B=2068.4 / REACNO=2 TERM= 4  &
        290            A=-34.95 B=14928.9
        291        ADSORP-POW REACNO=1 EXPONENT=3. / REACNO=2 EXPONENT=1.
        292        PARAM NTERM-ADS=4
        293
        294    PROP-TABLE BINRY-1 FLASHCURVE
        295        IN-UNITS MET PRESSURE=bar TEMPERATURE=C DELTA-T=C PDROP=bar  &
        296            INVERSE-PRES='1/bar' SHORT-LENGTH=mm
        297        ANALYSIS ANAL-TYPE=TXY
        298        PROPERTIES NRTL FREE-WATER=STEAM-TA SOLU-WATER=3  &
        299            TRUE-COMPS=YES
        300        MOLE-FLOW H2O 1 /  CH3OH  1
        301        STATE VFRAC=0.0
        302        VARY PRES
        303        RANGE LIST=1.013250000
        304        VARY MOLEFRAC COMP=H2O
        305        RANGE VARVALUE=RANGE LOWER=0.0 UPPER=1.0 NPOINT=50
        306        PARAM NPHASE=3
        307
        308    PROP-TABLE BINRY-2 FLASHCURVE
        309        IN-UNITS MET PRESSURE=bar TEMPERATURE=C DELTA-T=C PDROP=bar  &
        310            INVERSE-PRES='1/bar' SHORT-LENGTH=mm
        311        ANALYSIS ANAL-TYPE=TXY
        312        PROPERTIES RKSMHV2 FREE-WATER=STEAM-TA SOLU-WATER=3  &
        313            TRUE-COMPS=YES
        314        MOLE-FLOW CH3OH 1 /  H2O  1
        315        STATE VFRAC=0.0
        316        VARY PRES
        317        RANGE LIST=1.013250000
        318        VARY MOLEFRAC COMP=CH3OH
        319        RANGE VARVALUE=RANGE LOWER=0.0 UPPER=1.0 NPOINT=50
        320        PARAM NPHASE=3
        321    ;
        322    ;
        323    ;
        324    ;
        325    ;
 *** INPUT TRANSLATOR MESSAGES ***

  *** THIS RUN USES THE PROPERTIES ENTERPRISE DATABASE ***
      RGPE\ASPEN.APESV100 : (DATAVERSION - 36.0.0.1)                          
      RGPE\ASPEN.APV100 : (DATAVERSION - 36.0.0.21)                           
      RGPE\ASPEN.FACTV100 : (DATAVERSION - 36.0.0.1)                          
      RGPE\ASPEN.NISTV100 : (DATAVERSION - 36.0.0.15)                         

  *   WARNING IN THE "STREAM" PARAGRAPH WHICH BEGINS ON LINE 137                
      STREAM NAME: H20-IN                                      (STSTRM.28)      
      COMPONENT MOLE FLOWS OF SUBSTREAM: "MIXED"                                
      ARE NORMALIZED TO THE TOTAL MOLE FLOW VALUE.                              

  *   WARNING IN THE "STREAM" PARAGRAPH WHICH BEGINS ON LINE 141                
      STREAM NAME: S2                                          (STSTRM.28)      
      COMPONENT MOLE FLOWS OF SUBSTREAM: "MIXED"                                
      ARE NORMALIZED TO THE TOTAL MOLE FLOW VALUE.                              

  *   WARNING IN THE "STREAM" PARAGRAPH WHICH BEGINS ON LINE 145                
      STREAM NAME: TO-COMPR                                    (SDSMPR.11)      
      COMPONENT MOLE FRACTIONS ARE NORMALIZED TO UNITY.                         
 
 

 PDF updated                                                                      TIME =      1.94

 *** CALCULATION TRACE ***


 *** FLOWSHEET ANALYSIS MESSAGES ***

 FLOWSHEET CONNECTIVITY BY STREAMS       

   STREAM     SOURCE     DEST           STREAM     SOURCE     DEST
   H20-IN     ----       RPLUG          TO-COMPR   ----       COMP1   
   S2         ----       B4             R-OUT      RPLUG      HEATX-2 
   HEATX-IN   RPLUG      HEATX-1        PURGE      SPLIT-1    MIX-FLME
   RECYCLE    SPLIT-1    B2             MIX-OUT    MIXER      HEATX-1 
   TO-SPLIT   FLASH-1    SPLIT-1        FLASH1-L   FLASH-1    FLASH-2 
   R-IN       B1         RPLUG          TO-MIX     B2         MIXER   
   FLASH2-V   FLASH-2    MIX-FLME       FLASH2-L   FLASH-2    HEATX-3 
   S3         HX-FL1     FLASH-1        HTX1-OUT   HEATX-1    HEATX-2 
   S4         HEATX-1    B1             S6         HEATX-2    HX-FL1  
   HTX2-OUT   HEATX-2    HEATX-3        HOT-H2O    HEATX-3    H2OCONDS
   TO-DSTL    HEATX-3    RADFRAC        H2O-POND   H2OCONDS   ----    
   S5         COMP1      COOLER-1       S7         COOLER-1   COMP-2  
   S8         COMP-2     COOLER-2       S9         COOLER-2   COMPR-FL
   SYNGAS     B11        MIXER          S10        COMP-3     B11     
   MEOH       RADFRAC    ----           WATER      RADFRAC    ----    
   S14        COMPR-FL   COMP-3         COMP-H2O   COMPR-FL   ----    
   TO-FLAME   MIX-FLME   B4             S1         B4         ----    

 FLOWSHEET CONNECTIVITY BY BLOCKS        

   BLOCK        INLETS                         OUTLETS
   RPLUG        R-IN H20-IN                    R-OUT HEATX-IN              
   SPLIT-1      TO-SPLIT                       PURGE RECYCLE               
   MIXER        TO-MIX SYNGAS                  MIX-OUT                     
   FLASH-1      S3                             TO-SPLIT FLASH1-L           
   B1           S4                             R-IN                        
   B2           RECYCLE                        TO-MIX                      
   FLASH-2      FLASH1-L                       FLASH2-V FLASH2-L           
   HX-FL1       S6                             S3                          
   HEATX-1      HEATX-IN MIX-OUT               HTX1-OUT S4                 
   HEATX-2      R-OUT HTX1-OUT                 S6 HTX2-OUT                 
   HEATX-3      HTX2-OUT FLASH2-L              HOT-H2O TO-DSTL             
   H2OCONDS     HOT-H2O                        H2O-POND                    
   COMP1        TO-COMPR                       S5                          
   COOLER-1     S5                             S7                          
   COMP-2       S7                             S8                          
   COOLER-2     S8                             S9                          
   B11          S10                            SYNGAS                      
   COMP-3       S14                            S10                         
   RADFRAC      TO-DSTL                        MEOH WATER                  
   COMPR-FL     S9                             S14 COMP-H2O                
   MIX-FLME     PURGE FLASH2-V                 TO-FLAME                    
   B4           TO-FLAME S2                    S1                          

      BLOCK $OLVER01 (METHOD: WEGSTEIN) HAS BEEN DEFINED TO CONVERGE
               STREAMS: HTX1-OUT  R-IN

      COMPUTATION ORDER FOR THE FLOWSHEET IS:
      COMP1 COOLER-1 COMP-2 COOLER-2 COMPR-FL COMP-3 B11 
      $OLVER01 RPLUG HEATX-2 HX-FL1 FLASH-1 SPLIT-1 B2 MIXER HEATX-1 B1 
      (RETURN $OLVER01) 
      FLASH-2 MIX-FLME B4 HEATX-3 H2OCONDS RADFRAC 

Calculations begin                                                              time      0.06


 SIMULATION CALCULATIONS BEGIN                                                    TIME =      0.06

      ENTHALPY CALCULATION FOR INLET STREAM TO-COMPR OF BLOCK COMP1               TIME =      0.06
      KODE = 2  NTRIAL =   4  T = 323.1500  P = 2.900000E+06  V =  1.00000      Q =  0.00000    

      UOS BLOCK COMP1    MODEL: COMPR                                             TIME =      0.06
      OUTLET TEMP =   363.0       OUTLET PRES =  0.3973E+07   INDICATED HP =  0.1313E+08   BRAKE HP =  0.1313E+08
      ISENTR TEMP =   352.2      CALC ISENTR EFF =  0.7200      ISENTR HP =  0.9457E+07  HP =  0.1399E+09

      UOS BLOCK COOLER-1 MODEL: HEATER                                            TIME =      0.06
      KODE = 2  NTRIAL =   4  T = 323.1500  P = 4.000000E+06  V = 0.999603      Q =-1.374777E+07

      UOS BLOCK COMP-2   MODEL: COMPR                                             TIME =      0.07
      OUTLET TEMP =   362.4       OUTLET PRES =  0.5480E+07   INDICATED HP =  0.1315E+08   BRAKE HP =  0.1315E+08
      ISENTR TEMP =   351.8      CALC ISENTR EFF =  0.7200      ISENTR HP =  0.9468E+07  HP =  0.1400E+09

      UOS BLOCK COOLER-2 MODEL: HEATER                                            TIME =      0.07
      KODE = 2  NTRIAL =   4  T = 323.1500  P = 5.500000E+06  V = 0.998710      Q =-1.409817E+07

      UOS BLOCK COMPR-FL MODEL: FLASH2                                            TIME =      0.07
      KODE = 2  NTRIAL =   4  T = 323.1500  P = 5.500000E+06  V = 0.998710      Q = 1.586932E-07

      UOS BLOCK COMP-3   MODEL: COMPR                                             TIME =      0.07
      OUTLET TEMP =   363.0       OUTLET PRES =  0.7535E+07   INDICATED HP =  0.1321E+08   BRAKE HP =  0.1321E+08
      ISENTR TEMP =   352.4      CALC ISENTR EFF =  0.7200      ISENTR HP =  0.9513E+07  HP =  0.1405E+09

      UOS BLOCK B11      MODEL: HEATER                                            TIME =      0.07
      KODE = 2  NTRIAL =   4  T = 323.1500  P = 7.500000E+06  V = 0.999364      Q =-1.418574E+07

      CONVERGENCE BLOCK $OLVER01  METHOD: WEGSTEIN                                TIME =      0.07
      ITER   0 For Tear Streams: HTX1-OUT  R-IN

      ENTHALPY CALCULATION FOR INLET STREAM H20-IN OF BLOCK RPLUG                 TIME =      0.07
      KODE = 2  NTRIAL =   1  T = 293.1500  P = 1.000000E+06  V =  0.00000      Q =  0.00000    

      UOS BLOCK RPLUG    MODEL: RPLUG                                             TIME =      0.07

  *   WARNING WHILE EXECUTING UNIT OPERATIONS BLOCK: "RPLUG" (MODEL: "RPLUG")   
                                                               (URE04I.1)       
      TOTAL FLOW IS ZERO.                                                       

      UOS BLOCK HEATX-2  MODEL: HEATX                                             TIME =      0.07

  *   WARNING WHILE EXECUTING UNIT OPERATIONS BLOCK: "HEATX-2" (MODEL: "HEATX") 
                                                               (UHE02I.1)       
      AT LEAST ONE FEED HAS ZERO FLOW                                           
      BLOCK BYPASSED                                                            

      UOS BLOCK HX-FL1   MODEL: HEATER                                            TIME =      0.07

  *   WARNING WHILE EXECUTING UNIT OPERATIONS BLOCK: "HX-FL1" (MODEL: "HEATER") 
                                                               (UHE01.4)        
      ZERO FEED TO THE BLOCK.  BLOCK BYPASSED                                   

      UOS BLOCK FLASH-1  MODEL: FLASH2                                            TIME =      0.07

  *   WARNING WHILE EXECUTING UNIT OPERATIONS BLOCK: "FLASH-1" (MODEL:          
      "FLASH2")                                                (UFL01I.1)       
      ZERO FEED TO THE BLOCK.  BLOCK BYPASSED                                   

      UOS BLOCK SPLIT-1  MODEL: FSPLIT                                            TIME =      0.07

  *   WARNING WHILE EXECUTING UNIT OPERATIONS BLOCK: "SPLIT-1" (MODEL:          
      "FSPLIT")                                                (USP01I.1)       
      ZERO FEED TO THE BLOCK. BLOCK BYPASSED                                    

      UOS BLOCK B2       MODEL: COMPR                                             TIME =      0.07

  *   WARNING WHILE EXECUTING UNIT OPERATIONS BLOCK: "B2" (MODEL: "COMPR")      
                                                               (CMSTIN.1)       
      TOTAL FLOW IS ZERO. BLOCK IS BYPASSED.                                    
 

      UOS BLOCK MIXER    MODEL: MIXER                                             TIME =      0.07
      KODE = 1  NTRIAL =   7  T = 323.1500  P = 7.500000E+06  V = 0.999364      Q =  0.00000    

      UOS BLOCK HEATX-1  MODEL: HEATX                                             TIME =      0.07

  **  ERROR WHILE EXECUTING UNIT OPERATIONS BLOCK: "HEATX-1" (MODEL: "HEATX")   
                                                               (UHE02I.2)       
      "COLD" STREAM IS HOTTER THAN "HOT" STREAM                                 
      BLOCK BYPASSED                                                            

      UOS BLOCK B1       MODEL: HEATER                                            TIME =      0.07
      KODE = 2  NTRIAL =   4  T = 523.1500  P = 7.500000E+06  V =  1.00000      Q = 7.028929E+07

      CONVERGENCE BLOCK $OLVER01  METHOD: WEGSTEIN                                TIME =      0.07
      ITER   1 For Tear Streams: HTX1-OUT  R-IN

      --FLASH TEAR STREAM HTX1-OUT
      NO. TEMP ITER =    6     TEMP =  293.150    
      KODE = 1  NTRIAL =   2  T = 293.1500  P = 1.000000E+06  V =  0.00000      Q =  0.00000    

      --FLASH TEAR STREAM R-IN    
      NO. TEMP ITER =    5     TEMP =  523.150    
      KODE = 1  NTRIAL =   6  T = 523.1500  P = 7.500000E+06  V =  1.00000      Q =  0.00000    

  LOOP $OLVER01 ITER    1:   9 VARS NOT CONVERGED, MAX ERR/TOL     0.10000E+07    TIME =      0.07

      UOS BLOCK RPLUG    MODEL: RPLUG                                             TIME =      0.07
        AT REACTOR EXIT :
        LENGTH =   15.000      DIAMETER =  0.10000      RESIDENCE TIME =   10.856    
        PROCESS STREAM T =    536.22     P =   0.75000E+07 H =  -0.75364E+09 V =    1.0000    
        COOLANT STREAM T =    536.22     P =   0.10000E+07 H =  -0.43302E+09 V =    1.0000    
        MIN T =   523.150     AT Z/LENGTH =   0.00000     MAX T =   564.706     AT Z/LENGTH =  0.426322E-01

      UOS BLOCK HEATX-2  MODEL: HEATX                                             TIME =      0.20

  **  ERROR WHILE EXECUTING UNIT OPERATIONS BLOCK: "HEATX-2" (MODEL: "HEATX")   
                                                               (HXZCSP.1)       
      INVALID HOT STREAM TEMPERATURE SPECIFICATION                              
      T-SPEC =  5.4315000D+02 IS MORE THAN THIN =  5.3622029D+02                

      UOS BLOCK HX-FL1   MODEL: HEATER                                            TIME =      0.20
      KODE = 2  NTRIAL =   4  T = 308.1500  P = 7.500000E+06  V = 0.850049      Q =-1.156465E+08

      UOS BLOCK FLASH-1  MODEL: FLASH2                                            TIME =      0.20
      KODE = 2  NTRIAL =   4  T = 308.1500  P = 7.340000E+06  V = 0.850383      Q =  85263.2    

      UOS BLOCK SPLIT-1  MODEL: FSPLIT                                            TIME =      0.20
      SPLIT FRACTIONS:  0.75500D-01    0.92450D+00

      UOS BLOCK B2       MODEL: COMPR                                             TIME =      0.20
      OUTLET TEMP =   310.6       OUTLET PRES =  0.7500E+07   INDICATED HP =  0.5141E+06   BRAKE HP =  0.5141E+06
      ISENTR TEMP =   310.0      CALC ISENTR EFF =  0.7200      ISENTR HP =  0.3702E+06  HP =  0.3447E+07

      UOS BLOCK MIXER    MODEL: MIXER                                             TIME =      0.20
      KODE = 1  NTRIAL =   8  T = 318.1186  P = 7.500000E+06  V = 0.999685      Q =  0.00000    

      UOS BLOCK HEATX-1  MODEL: HEATX                                             TIME =      0.20
      SPECIFICATION: HOT OUTLET TEMP       323.15    
      FLOW TYPE:     MULTIPASS       
      HOT:  TIN=  536.22  PIN=0.10000E+07   TOUT=  323.15  POUT=0.10000E+07
      COLD: TIN=  318.12  PIN=0.75000E+07   TOUT=  478.06  POUT=0.75000E+07
      DUTY=0.92481E+08       FT=0.86440

      UOS BLOCK B1       MODEL: HEATER                                            TIME =      0.20
      KODE = 2  NTRIAL =   4  T = 523.1500  P = 7.500000E+06  V =  1.00000      Q = 2.618560E+07

      CONVERGENCE BLOCK $OLVER01  METHOD: WEGSTEIN                                TIME =      0.20
      ITER   2 For Tear Streams: HTX1-OUT  R-IN

      --FLASH TEAR STREAM HTX1-OUT
      NO. TEMP ITER =    5     TEMP =  323.150    
      KODE = 1  NTRIAL =   2  T = 323.1501  P = 1.000000E+06  V =  0.00000      Q =  0.00000    

      --FLASH TEAR STREAM R-IN    
      NO. TEMP ITER =    5     TEMP =  794.641    
      KODE = 1  NTRIAL =   5  T = 794.6415  P = 7.500000E+06  V =  1.00000      Q =  0.00000    

  LOOP $OLVER01 ITER    2:  10 VARS NOT CONVERGED, MAX ERR/TOL      1000.0        TIME =      0.20

      UOS BLOCK RPLUG    MODEL: RPLUG                                             TIME =      0.20
        AT REACTOR EXIT :
        LENGTH =   15.000      DIAMETER =  0.10000      RESIDENCE TIME =   2.3432    
        PROCESS STREAM T =    661.95     P =   0.75000E+07 H =  -0.25216E+10 V =    1.0000    
        COOLANT STREAM T =    661.96     P =   0.10000E+07 H =  -0.42434E+09 V =    1.0000    
        MIN T =   660.871     AT Z/LENGTH =  0.100000     MAX T =   794.642     AT Z/LENGTH =   0.00000    

      UOS BLOCK HEATX-2  MODEL: HEATX                                             TIME =      0.34
      SPECIFICATION: HOT OUTLET TEMP       543.15    
      FLOW TYPE:     COUNTERCURRENT  

  **  ERROR WHILE EXECUTING UNIT OPERATIONS BLOCK: "HEATX-2" (MODEL: "HEATX")   
                                                               (HEATX.4)        
      TEMPERATURE CROSSOVER DETECTED                                            
      RE-CALCULATING WITH MINIMUM APPROACH TEMP. SPEC                           
      HOT:  TIN=  661.95  PIN=0.75000E+07   TOUT=  574.86  POUT=0.75000E+07
      COLD: TIN=  323.15  PIN=0.10000E+07   TOUT=  660.95  POUT=0.10000E+07
                              DUTY=0.10108E+09

      UOS BLOCK HX-FL1   MODEL: HEATER                                            TIME =      0.34
      KODE = 2  NTRIAL =   5  T = 308.1500  P = 7.500000E+06  V = 0.946019      Q =-3.678703E+08

      UOS BLOCK FLASH-1  MODEL: FLASH2                                            TIME =      0.34
      KODE = 2  NTRIAL =   5  T = 308.1500  P = 7.340000E+06  V = 0.946076      Q =  295455.    

      UOS BLOCK SPLIT-1  MODEL: FSPLIT                                            TIME =      0.34
      SPLIT FRACTIONS:  0.75500D-01    0.92450D+00

      UOS BLOCK B2       MODEL: COMPR                                             TIME =      0.34
      OUTLET TEMP =   310.6       OUTLET PRES =  0.7500E+07   INDICATED HP =  0.2135E+07   BRAKE HP =  0.2135E+07
      ISENTR TEMP =   310.0      CALC ISENTR EFF =  0.7200      ISENTR HP =  0.1537E+07  HP =  0.5969E+08

      UOS BLOCK MIXER    MODEL: MIXER                                             TIME =      0.34
      KODE = 1  NTRIAL =   5  T = 313.8836  P = 7.500000E+06  V = 0.999850      Q =  0.00000    

      UOS BLOCK HEATX-1  MODEL: HEATX                                             TIME =      0.34
      SPECIFICATION: HOT OUTLET TEMP       323.15    
      FLOW TYPE:     MULTIPASS       
      HOT:  TIN=  661.95  PIN=0.10000E+07   TOUT=  323.15  POUT=0.10000E+07
      COLD: TIN=  313.88  PIN=0.75000E+07   TOUT=  390.89  POUT=0.75000E+07
      DUTY=0.10115E+09       FT=0.99268

      UOS BLOCK B1       MODEL: HEATER                                            TIME =      0.34
      KODE = 2  NTRIAL =   3  T = 523.1500  P = 7.500000E+06  V =  1.00000      Q = 1.744862E+08

      CONVERGENCE BLOCK $OLVER01  METHOD: WEGSTEIN                                TIME =      0.34
      ITER   3 For Tear Streams: HTX1-OUT  R-IN

      --FLASH TEAR STREAM HTX1-OUT
      NO. TEMP ITER =    5     TEMP =  323.150    
      KODE = 1  NTRIAL =   2  T = 323.1501  P = 1.000000E+06  V =  0.00000      Q =  0.00000    

      --FLASH TEAR STREAM R-IN    
      KODE = 1  NTRIAL =  15  T = 220.3500  P = 7.500000E+06  V = 0.998277      Q =  0.00000    

  LOOP $OLVER01 ITER    3:   9 VARS NOT CONVERGED, MAX ERR/TOL      1140.3        TIME =      0.34

      UOS BLOCK RPLUG    MODEL: RPLUG                                             TIME =      0.34
        AT REACTOR EXIT :
        LENGTH =   15.000      DIAMETER =  0.10000      RESIDENCE TIME =   3.9380    
        PROCESS STREAM T =    223.69     P =   0.75000E+07 H =  -0.28208E+10 V =    1.0000    
        COOLANT STREAM T =    223.70     P =   0.10000E+07 H =  -0.53991E+09 V =    0.0000    
        MIN T =   218.836     AT Z/LENGTH =   0.00000     MAX T =   223.688     AT Z/LENGTH =  0.325418    

      UOS BLOCK HEATX-2  MODEL: HEATX                                             TIME =      0.37

  **  ERROR WHILE EXECUTING UNIT OPERATIONS BLOCK: "HEATX-2" (MODEL: "HEATX")   
                                                               (UHE02I.2)       
      "COLD" STREAM IS HOTTER THAN "HOT" STREAM                                 
      BLOCK BYPASSED                                                            

      UOS BLOCK HX-FL1   MODEL: HEATER                                            TIME =      0.37
      KODE = 2  NTRIAL =   4  T = 308.1500  P = 7.500000E+06  V = 0.999991      Q = 1.651153E+08

      UOS BLOCK FLASH-1  MODEL: FLASH2                                            TIME =      0.37
      KODE = 2  NTRIAL =   4  T = 308.1500  P = 7.340000E+06  V =  1.00000      Q =  233322.    

      UOS BLOCK SPLIT-1  MODEL: FSPLIT                                            TIME =      0.37
      SPLIT FRACTIONS:  0.75500D-01    0.92450D+00

      UOS BLOCK B2       MODEL: COMPR                                             TIME =      0.37
      OUTLET TEMP =   310.7       OUTLET PRES =  0.7500E+07   INDICATED HP =  0.4299E+07   BRAKE HP =  0.4299E+07
      ISENTR TEMP =   310.0      CALC ISENTR EFF =  0.7200      ISENTR HP =  0.3095E+07  HP =  0.2357E+09

      UOS BLOCK MIXER    MODEL: MIXER                                             TIME =      0.37
      KODE = 1  NTRIAL =   4  T = 312.6671  P = 7.500000E+06  V = 0.999970      Q =  0.00000    

      UOS BLOCK HEATX-1  MODEL: HEATX                                             TIME =      0.37

  **  ERROR WHILE EXECUTING UNIT OPERATIONS BLOCK: "HEATX-1" (MODEL: "HEATX")   
                                                               (UHE02I.2)       
      "COLD" STREAM IS HOTTER THAN "HOT" STREAM                                 
      BLOCK BYPASSED                                                            

      UOS BLOCK B1       MODEL: HEATER                                            TIME =      0.37
      KODE = 2  NTRIAL =   4  T = 523.1500  P = 7.500000E+06  V =  1.00000      Q = 4.471860E+08

      CONVERGENCE BLOCK $OLVER01  METHOD: WEGSTEIN                                TIME =      0.37
      ITER   4 For Tear Streams: HTX1-OUT  R-IN

      --FLASH TEAR STREAM HTX1-OUT
      NO. TEMP ITER =    6     TEMP =  223.687    
      KODE = 1  NTRIAL =   2  T = 223.6868  P = 1.000000E+06  V =  0.00000      Q =  0.00000    

      --FLASH TEAR STREAM R-IN    
      NO. TEMP ITER =    5     TEMP =  421.065    
      KODE = 1  NTRIAL =   8  T = 421.0653  P = 7.500000E+06  V =  1.00000      Q =  0.00000    

  LOOP $OLVER01 ITER    4:  10 VARS NOT CONVERGED, MAX ERR/TOL      433.97        TIME =      0.37

      UOS BLOCK RPLUG    MODEL: RPLUG                                             TIME =      0.39
        AT REACTOR EXIT :
        LENGTH =   15.000      DIAMETER =  0.10000      RESIDENCE TIME =   1.3785    
        PROCESS STREAM T =    414.87     P =   0.75000E+07 H =  -0.31344E+10 V =    1.0000    
        COOLANT STREAM T =    414.86     P =   0.10000E+07 H =  -0.51263E+09 V =    0.0000    
        MIN T =   414.865     AT Z/LENGTH =  0.275070     MAX T =   421.065     AT Z/LENGTH =   0.00000    

      UOS BLOCK HEATX-2  MODEL: HEATX                                             TIME =      0.42

  **  ERROR WHILE EXECUTING UNIT OPERATIONS BLOCK: "HEATX-2" (MODEL: "HEATX")   
                                                               (HXZCSP.1)       
      INVALID HOT STREAM TEMPERATURE SPECIFICATION                              
      T-SPEC =  5.4315000D+02 IS MORE THAN THIN =  4.1486849D+02                

      UOS BLOCK HX-FL1   MODEL: HEATER                                            TIME =      0.42
      KODE = 2  NTRIAL =   3  T = 308.1500  P = 7.500000E+06  V = 0.998480      Q =-2.985543E+08

      UOS BLOCK FLASH-1  MODEL: FLASH2                                            TIME =      0.42
      KODE = 2  NTRIAL =   4  T = 308.1500  P = 7.340000E+06  V = 0.998499      Q =  299627.    

      UOS BLOCK SPLIT-1  MODEL: FSPLIT                                            TIME =      0.42
      SPLIT FRACTIONS:  0.75500D-01    0.92450D+00

      UOS BLOCK B2       MODEL: COMPR                                             TIME =      0.42
      OUTLET TEMP =   310.7       OUTLET PRES =  0.7500E+07   INDICATED HP =  0.6291E+07   BRAKE HP =  0.6291E+07
      ISENTR TEMP =   310.0      CALC ISENTR EFF =  0.7200      ISENTR HP =  0.4530E+07  HP =  0.5026E+09

      UOS BLOCK MIXER    MODEL: MIXER                                             TIME =      0.42
      NO. TEMP ITER =    3     TEMP =  312.121    
      KODE = 1  NTRIAL =   3  T = 312.1215  P = 7.500000E+06  V =  1.00000      Q =  0.00000    

      UOS BLOCK HEATX-1  MODEL: HEATX                                             TIME =      0.42
      SPECIFICATION: HOT OUTLET TEMP       323.15    
      FLOW TYPE:     MULTIPASS       
      HOT:  TIN=  414.87  PIN=0.10000E+07   TOUT=  323.15  POUT=0.10000E+07
      COLD: TIN=  312.12  PIN=0.75000E+07   TOUT=  316.59  POUT=0.75000E+07
      DUTY=0.12870E+08       FT=0.99957

      UOS BLOCK B1       MODEL: HEATER                                            TIME =      0.42
      KODE = 2  NTRIAL =   4  T = 523.1500  P = 7.500000E+06  V =  1.00000      Q = 5.986336E+08

      CONVERGENCE BLOCK $OLVER01  METHOD: WEGSTEIN                                TIME =      0.42
      ITER   5 For Tear Streams: HTX1-OUT  R-IN

      --FLASH TEAR STREAM HTX1-OUT
      NO. TEMP ITER =    5     TEMP =  323.150    
      KODE = 1  NTRIAL =   2  T = 323.1501  P = 1.000000E+06  V =  0.00000      Q =  0.00000    

      --FLASH TEAR STREAM R-IN    
      NO. TEMP ITER =    5     TEMP =  721.965    
      KODE = 1  NTRIAL =   5  T = 721.9648  P = 7.500000E+06  V =  1.00000      Q =  0.00000    

  LOOP $OLVER01 ITER    5:  10 VARS NOT CONVERGED, MAX ERR/TOL     -481.33        TIME =      0.42

      UOS BLOCK RPLUG    MODEL: RPLUG                                             TIME =      0.44
        AT REACTOR EXIT :
        LENGTH =   15.000      DIAMETER =  0.10000      RESIDENCE TIME =  0.67054    
        PROCESS STREAM T =    673.19     P =   0.75000E+07 H =  -0.48152E+10 V =    1.0000    
        COOLANT STREAM T =    673.18     P =   0.10000E+07 H =  -0.42355E+09 V =    1.0000    
        MIN T =   670.134     AT Z/LENGTH =  0.890222E-01 MAX T =   721.965     AT Z/LENGTH =   0.00000    

      UOS BLOCK HEATX-2  MODEL: HEATX                                             TIME =      0.52
      SPECIFICATION: HOT OUTLET TEMP       543.15    
      FLOW TYPE:     COUNTERCURRENT  

  **  ERROR WHILE EXECUTING UNIT OPERATIONS BLOCK: "HEATX-2" (MODEL: "HEATX")   
                                                               (HEATX.4)        
      TEMPERATURE CROSSOVER DETECTED                                            
      RE-CALCULATING WITH MINIMUM APPROACH TEMP. SPEC                           
      HOT:  TIN=  673.19  PIN=0.75000E+07   TOUT=  645.46  POUT=0.75000E+07
      COLD: TIN=  323.15  PIN=0.10000E+07   TOUT=  672.19  POUT=0.10000E+07
                              DUTY=0.10187E+09

      UOS BLOCK HX-FL1   MODEL: HEATER                                            TIME =      0.52
      KODE = 2  NTRIAL =   4  T = 308.1500  P = 7.500000E+06  V = 0.967963      Q =-1.354332E+09

      UOS BLOCK FLASH-1  MODEL: FLASH2                                            TIME =      0.52
      KODE = 2  NTRIAL =   4  T = 308.1500  P = 7.340000E+06  V = 0.968006      Q =  503587.    

      UOS BLOCK SPLIT-1  MODEL: FSPLIT                                            TIME =      0.52
      SPLIT FRACTIONS:  0.75500D-01    0.92450D+00

      UOS BLOCK B2       MODEL: COMPR                                             TIME =      0.52
      OUTLET TEMP =   310.7       OUTLET PRES =  0.7500E+07   INDICATED HP =  0.7730E+07   BRAKE HP =  0.7730E+07
      ISENTR TEMP =   310.0      CALC ISENTR EFF =  0.7200      ISENTR HP =  0.5566E+07  HP =  0.7616E+09

      UOS BLOCK MIXER    MODEL: MIXER                                             TIME =      0.52
      NO. TEMP ITER =    4     TEMP =  311.875    
      KODE = 1  NTRIAL =   4  T = 311.8753  P = 7.500000E+06  V =  1.00000      Q =  0.00000    

      UOS BLOCK HEATX-1  MODEL: HEATX                                             TIME =      0.52
      SPECIFICATION: HOT OUTLET TEMP       323.15    
      FLOW TYPE:     MULTIPASS       
      HOT:  TIN=  673.19  PIN=0.10000E+07   TOUT=  323.15  POUT=0.10000E+07
      COLD: TIN=  311.88  PIN=0.75000E+07   TOUT=  340.96  POUT=0.75000E+07
      DUTY=0.10194E+09       FT=0.99810

      UOS BLOCK B1       MODEL: HEATER                                            TIME =      0.52
      KODE = 2  NTRIAL =   4  T = 523.1500  P = 7.500000E+06  V =  1.00000      Q = 6.399574E+08

      CONVERGENCE BLOCK $OLVER01  METHOD: WEGSTEIN                                TIME =      0.52
      ITER   6 For Tear Streams: HTX1-OUT  R-IN

      --FLASH TEAR STREAM HTX1-OUT
      NO. TEMP ITER =    5     TEMP =  323.150    
      KODE = 1  NTRIAL =   2  T = 323.1501  P = 1.000000E+06  V =  0.00000      Q =  0.00000    

      --FLASH TEAR STREAM R-IN    
      NO. TEMP ITER =    5     TEMP =  457.604    
      KODE = 1  NTRIAL =   6  T = 457.6040  P = 7.500000E+06  V =  1.00000      Q =  0.00000    

  LOOP $OLVER01 ITER    6:   9 VARS NOT CONVERGED, MAX ERR/TOL      7303.4        TIME =      0.54

      UOS BLOCK RPLUG    MODEL: RPLUG                                             TIME =      0.54
        AT REACTOR EXIT :
        LENGTH =   15.000      DIAMETER =  0.10000      RESIDENCE TIME =   1.0582    
        PROCESS STREAM T =    453.46     P =   0.75000E+07 H =  -0.45808E+10 V =    1.0000    
        COOLANT STREAM T =    453.13     P =   0.10000E+07 H =  -0.50693E+09 V =   0.26590E-02
        MIN T =   451.559     AT Z/LENGTH =  0.104460     MAX T =   457.604     AT Z/LENGTH =   0.00000    

      UOS BLOCK HEATX-2  MODEL: HEATX                                             TIME =      0.57

  **  ERROR WHILE EXECUTING UNIT OPERATIONS BLOCK: "HEATX-2" (MODEL: "HEATX")   
                                                               (HXZCSP.1)       
      INVALID HOT STREAM TEMPERATURE SPECIFICATION                              
      T-SPEC =  5.4315000D+02 IS MORE THAN THIN =  4.5345585D+02                

      UOS BLOCK HX-FL1   MODEL: HEATER                                            TIME =      0.57
      KODE = 2  NTRIAL =   4  T = 308.1500  P = 7.500000E+06  V = 0.998000      Q =-4.892090E+08

      UOS BLOCK FLASH-1  MODEL: FLASH2                                            TIME =      0.57
      KODE = 2  NTRIAL =   4  T = 308.1500  P = 7.340000E+06  V = 0.998028      Q =  475668.    

      UOS BLOCK SPLIT-1  MODEL: FSPLIT                                            TIME =      0.57
      SPLIT FRACTIONS:  0.75500D-01    0.92450D+00

      UOS BLOCK B2       MODEL: COMPR                                             TIME =      0.57
      OUTLET TEMP =   310.7       OUTLET PRES =  0.7500E+07   INDICATED HP =  0.7482E+07   BRAKE HP =  0.7482E+07
      ISENTR TEMP =   310.0      CALC ISENTR EFF =  0.7200      ISENTR HP =  0.5387E+07  HP =  0.7130E+09

      UOS BLOCK MIXER    MODEL: MIXER                                             TIME =      0.57
      NO. TEMP ITER =    4     TEMP =  311.911    
      KODE = 1  NTRIAL =   4  T = 311.9112  P = 7.500000E+06  V =  1.00000      Q =  0.00000    

      UOS BLOCK HEATX-1  MODEL: HEATX                                             TIME =      0.57
      SPECIFICATION: HOT OUTLET TEMP       323.15    
      FLOW TYPE:     MULTIPASS       
      HOT:  TIN=  453.13  PIN=0.10000E+07   TOUT=  323.15  POUT=0.10000E+07
      COLD: TIN=  311.91  PIN=0.75000E+07   TOUT=  317.36  POUT=0.75000E+07
      DUTY=0.18570E+08       FT=0.99953

      UOS BLOCK B1       MODEL: HEATER                                            TIME =      0.57
      KODE = 2  NTRIAL =   3  T = 523.1500  P = 7.500000E+06  V =  1.00000      Q = 7.014860E+08

      CONVERGENCE BLOCK $OLVER01  METHOD: WEGSTEIN                                TIME =      0.57
      ITER   7 For Tear Streams: HTX1-OUT  R-IN

      --FLASH TEAR STREAM HTX1-OUT
      NO. TEMP ITER =    5     TEMP =  323.150    
      KODE = 1  NTRIAL =   2  T = 323.1501  P = 1.000000E+06  V =  0.00000      Q =  0.00000    

      --FLASH TEAR STREAM R-IN    
      NO. TEMP ITER =    5     TEMP =  527.955    
      KODE = 1  NTRIAL =   5  T = 527.9549  P = 7.500000E+06  V =  1.00000      Q =  0.00000    

  LOOP $OLVER01 ITER    7:   9 VARS NOT CONVERGED, MAX ERR/TOL      936.88        TIME =      0.59

      UOS BLOCK RPLUG    MODEL: RPLUG                                             TIME =      0.59
        AT REACTOR EXIT :
        LENGTH =   15.000      DIAMETER =  0.10000      RESIDENCE TIME =  0.84478    
        PROCESS STREAM T =    593.27     P =   0.75000E+07 H =  -0.47930E+10 V =    1.0000    
        COOLANT STREAM T =    593.24     P =   0.10000E+07 H =  -0.42911E+09 V =    1.0000    
        MIN T =   527.955     AT Z/LENGTH =   0.00000     MAX T =   593.270     AT Z/LENGTH =  0.842215    

      UOS BLOCK HEATX-2  MODEL: HEATX                                             TIME =      0.66
      SPECIFICATION: HOT OUTLET TEMP       543.15    
      FLOW TYPE:     COUNTERCURRENT  

  **  ERROR WHILE EXECUTING UNIT OPERATIONS BLOCK: "HEATX-2" (MODEL: "HEATX")   
                                                               (HEATX.4)        
      TEMPERATURE CROSSOVER DETECTED                                            
      RE-CALCULATING WITH MINIMUM APPROACH TEMP. SPEC                           
      HOT:  TIN=  593.27  PIN=0.75000E+07   TOUT=  565.26  POUT=0.75000E+07
      COLD: TIN=  323.15  PIN=0.10000E+07   TOUT=  592.27  POUT=0.10000E+07
                              DUTY=0.96320E+08

      UOS BLOCK HX-FL1   MODEL: HEATER                                            TIME =      0.67
      KODE = 2  NTRIAL =   4  T = 308.1500  P = 7.500000E+06  V = 0.952693      Q =-1.032696E+09

      UOS BLOCK FLASH-1  MODEL: FLASH2                                            TIME =      0.67
      KODE = 2  NTRIAL =   4  T = 308.1500  P = 7.340000E+06  V = 0.952813      Q =  613927.    

      UOS BLOCK SPLIT-1  MODEL: FSPLIT                                            TIME =      0.67
      SPLIT FRACTIONS:  0.75500D-01    0.92450D+00

      UOS BLOCK B2       MODEL: COMPR                                             TIME =      0.67
      OUTLET TEMP =   310.7       OUTLET PRES =  0.7500E+07   INDICATED HP =  0.6901E+07   BRAKE HP =  0.6901E+07
      ISENTR TEMP =   310.0      CALC ISENTR EFF =  0.7200      ISENTR HP =  0.4969E+07  HP =  0.6080E+09

      UOS BLOCK MIXER    MODEL: MIXER                                             TIME =      0.67
      NO. TEMP ITER =    4     TEMP =  311.980    
      KODE = 1  NTRIAL =   4  T = 311.9797  P = 7.500000E+06  V =  1.00000      Q =  0.00000    

      UOS BLOCK HEATX-1  MODEL: HEATX                                             TIME =      0.67
      SPECIFICATION: HOT OUTLET TEMP       323.15    
      FLOW TYPE:     MULTIPASS       
      HOT:  TIN=  593.27  PIN=0.10000E+07   TOUT=  323.15  POUT=0.10000E+07
      COLD: TIN=  311.98  PIN=0.75000E+07   TOUT=  342.15  POUT=0.75000E+07
      DUTY=0.96389E+08       FT=0.99770

      UOS BLOCK B1       MODEL: HEATER                                            TIME =      0.67
      KODE = 2  NTRIAL =   3  T = 523.1500  P = 7.500000E+06  V =  1.00000      Q = 5.796129E+08

      CONVERGENCE BLOCK $OLVER01  METHOD: WEGSTEIN                                TIME =      0.67
      ITER   8 For Tear Streams: HTX1-OUT  R-IN

      --FLASH TEAR STREAM HTX1-OUT
      NO. TEMP ITER =    5     TEMP =  323.150    
      KODE = 1  NTRIAL =   2  T = 323.1501  P = 1.000000E+06  V =  0.00000      Q =  0.00000    

      --FLASH TEAR STREAM R-IN    
      NO. TEMP ITER =    5     TEMP =  523.161    
      KODE = 1  NTRIAL =   3  T = 523.1608  P = 7.500000E+06  V =  1.00000      Q =  0.00000    

  LOOP $OLVER01 ITER    8:   8 VARS NOT CONVERGED, MAX ERR/TOL      1347.1        TIME =      0.67

      UOS BLOCK RPLUG    MODEL: RPLUG                                             TIME =      0.67
        AT REACTOR EXIT :
        LENGTH =   15.000      DIAMETER =  0.10000      RESIDENCE TIME =  0.92967    
        PROCESS STREAM T =    587.98     P =   0.75000E+07 H =  -0.45376E+10 V =    1.0000    
        COOLANT STREAM T =    587.99     P =   0.10000E+07 H =  -0.42947E+09 V =    1.0000    
        MIN T =   523.161     AT Z/LENGTH =   0.00000     MAX T =   587.985     AT Z/LENGTH =  0.955694    

      UOS BLOCK HEATX-2  MODEL: HEATX                                             TIME =      0.75
      SPECIFICATION: HOT OUTLET TEMP       543.15    
      FLOW TYPE:     COUNTERCURRENT  

  **  ERROR WHILE EXECUTING UNIT OPERATIONS BLOCK: "HEATX-2" (MODEL: "HEATX")   
                                                               (HEATX.4)        
      TEMPERATURE CROSSOVER DETECTED                                            
      RE-CALCULATING WITH MINIMUM APPROACH TEMP. SPEC                           
      HOT:  TIN=  587.98  PIN=0.75000E+07   TOUT=  557.85  POUT=0.75000E+07
      COLD: TIN=  323.15  PIN=0.10000E+07   TOUT=  586.98  POUT=0.10000E+07
                              DUTY=0.95956E+08

      UOS BLOCK HX-FL1   MODEL: HEATER                                            TIME =      0.75
      KODE = 2  NTRIAL =   3  T = 308.1500  P = 7.500000E+06  V = 0.948104      Q =-9.446942E+08

      UOS BLOCK FLASH-1  MODEL: FLASH2                                            TIME =      0.75
      KODE = 2  NTRIAL =   3  T = 308.1500  P = 7.340000E+06  V = 0.948230      Q =  582492.    

      UOS BLOCK SPLIT-1  MODEL: FSPLIT                                            TIME =      0.75
      SPLIT FRACTIONS:  0.75500D-01    0.92450D+00

      UOS BLOCK B2       MODEL: COMPR                                             TIME =      0.75
      OUTLET TEMP =   310.7       OUTLET PRES =  0.7500E+07   INDICATED HP =  0.6293E+07   BRAKE HP =  0.6293E+07
      ISENTR TEMP =   310.0      CALC ISENTR EFF =  0.7200      ISENTR HP =  0.4531E+07  HP =  0.5062E+09

      UOS BLOCK MIXER    MODEL: MIXER                                             TIME =      0.75
      NO. TEMP ITER =    4     TEMP =  312.078    
      KODE = 1  NTRIAL =   4  T = 312.0779  P = 7.500000E+06  V =  1.00000      Q =  0.00000    

      UOS BLOCK HEATX-1  MODEL: HEATX                                             TIME =      0.75
      SPECIFICATION: HOT OUTLET TEMP       323.15    
      FLOW TYPE:     MULTIPASS       
      HOT:  TIN=  587.98  PIN=0.10000E+07   TOUT=  323.15  POUT=0.10000E+07
      COLD: TIN=  312.08  PIN=0.75000E+07   TOUT=  344.55  POUT=0.75000E+07
      DUTY=0.96025E+08       FT=0.99745

      UOS BLOCK B1       MODEL: HEATER                                            TIME =      0.75
      KODE = 2  NTRIAL =   3  T = 523.1500  P = 7.500000E+06  V =  1.00000      Q = 5.299721E+08

      CONVERGENCE BLOCK $OLVER01  METHOD: WEGSTEIN                                TIME =      0.75
      ITER   9 For Tear Streams: HTX1-OUT  R-IN

      --FLASH TEAR STREAM HTX1-OUT
      NO. TEMP ITER =    5     TEMP =  323.150    
      KODE = 1  NTRIAL =   2  T = 323.1501  P = 1.000000E+06  V =  0.00000      Q =  0.00000    

      --FLASH TEAR STREAM R-IN    
      NO. TEMP ITER =    5     TEMP =  656.922    
      KODE = 1  NTRIAL =   5  T = 656.9217  P = 7.500000E+06  V =  1.00000      Q =  0.00000    

  LOOP $OLVER01 ITER    9:   8 VARS NOT CONVERGED, MAX ERR/TOL     -129.25        TIME =      0.76

      UOS BLOCK RPLUG    MODEL: RPLUG                                             TIME =      0.76
        AT REACTOR EXIT :
        LENGTH =   15.000      DIAMETER =  0.10000      RESIDENCE TIME =   1.5817    
        PROCESS STREAM T =    600.84     P =   0.75000E+07 H =  -0.26997E+10 V =    1.0000    
        COOLANT STREAM T =    600.85     P =   0.10000E+07 H =  -0.42859E+09 V =    1.0000    
        MIN T =   595.375     AT Z/LENGTH =  0.105968     MAX T =   656.922     AT Z/LENGTH =   0.00000    

      UOS BLOCK HEATX-2  MODEL: HEATX                                             TIME =      0.86
      SPECIFICATION: HOT OUTLET TEMP       543.15    
      FLOW TYPE:     COUNTERCURRENT  

  **  ERROR WHILE EXECUTING UNIT OPERATIONS BLOCK: "HEATX-2" (MODEL: "HEATX")   
                                                               (HEATX.4)        
      TEMPERATURE CROSSOVER DETECTED                                            
      RE-CALCULATING WITH MINIMUM APPROACH TEMP. SPEC                           
      HOT:  TIN=  600.84  PIN=0.75000E+07   TOUT=  548.52  POUT=0.75000E+07
      COLD: TIN=  323.15  PIN=0.10000E+07   TOUT=  599.84  POUT=0.10000E+07
                              DUTY=0.96842E+08

      UOS BLOCK HX-FL1   MODEL: HEATER                                            TIME =      0.86
      KODE = 2  NTRIAL =   4  T = 308.1500  P = 7.500000E+06  V = 0.959346      Q =-5.123008E+08

      UOS BLOCK FLASH-1  MODEL: FLASH2                                            TIME =      0.86
      KODE = 2  NTRIAL =   4  T = 308.1500  P = 7.340000E+06  V = 0.959422      Q =  364012.    

      UOS BLOCK SPLIT-1  MODEL: FSPLIT                                            TIME =      0.86
      SPLIT FRACTIONS:  0.75500D-01    0.92450D+00

      UOS BLOCK B2       MODEL: COMPR                                             TIME =      0.86
      OUTLET TEMP =   310.6       OUTLET PRES =  0.7500E+07   INDICATED HP =  0.3594E+07   BRAKE HP =  0.3594E+07
      ISENTR TEMP =   310.0      CALC ISENTR EFF =  0.7200      ISENTR HP =  0.2588E+07  HP =  0.1665E+09

      UOS BLOCK MIXER    MODEL: MIXER                                             TIME =      0.86
      KODE = 1  NTRIAL =   8  T = 312.8823  P = 7.500000E+06  V = 0.999956      Q =  0.00000    

      UOS BLOCK HEATX-1  MODEL: HEATX                                             TIME =      0.86
      SPECIFICATION: HOT OUTLET TEMP       323.15    
      FLOW TYPE:     MULTIPASS       
      HOT:  TIN=  600.84  PIN=0.10000E+07   TOUT=  323.15  POUT=0.10000E+07
      COLD: TIN=  312.88  PIN=0.75000E+07   TOUT=  364.09  POUT=0.75000E+07
      DUTY=0.96911E+08       FT=0.99541

      UOS BLOCK B1       MODEL: HEATER                                            TIME =      0.86
      KODE = 2  NTRIAL =   3  T = 523.1500  P = 7.500000E+06  V =  1.00000      Q = 3.040313E+08

      CONVERGENCE BLOCK $OLVER01  METHOD: WEGSTEIN                                TIME =      0.86
      ITER  10 For Tear Streams: HTX1-OUT  R-IN

      --FLASH TEAR STREAM HTX1-OUT
      NO. TEMP ITER =    5     TEMP =  323.150    
      KODE = 1  NTRIAL =   2  T = 323.1501  P = 1.000000E+06  V =  0.00000      Q =  0.00000    

      --FLASH TEAR STREAM R-IN    
      NO. TEMP ITER =    5     TEMP =  416.857    
      KODE = 1  NTRIAL =   7  T = 416.8572  P = 7.500000E+06  V =  1.00000      Q =  0.00000    

  LOOP $OLVER01 ITER   10:   8 VARS NOT CONVERGED, MAX ERR/TOL     -686.09        TIME =      0.86

      UOS BLOCK RPLUG    MODEL: RPLUG                                             TIME =      0.87
        AT REACTOR EXIT :
        LENGTH =   15.000      DIAMETER =  0.10000      RESIDENCE TIME =   1.7751    
        PROCESS STREAM T =    409.56     P =   0.75000E+07 H =  -0.34633E+10 V =    1.0000    
        COOLANT STREAM T =    409.57     P =   0.10000E+07 H =  -0.51338E+09 V =    0.0000    
        MIN T =   409.557     AT Z/LENGTH =  0.232075     MAX T =   416.857     AT Z/LENGTH =   0.00000    

      UOS BLOCK HEATX-2  MODEL: HEATX                                             TIME =      0.90

  **  ERROR WHILE EXECUTING UNIT OPERATIONS BLOCK: "HEATX-2" (MODEL: "HEATX")   
                                                               (HXZCSP.1)       
      INVALID HOT STREAM TEMPERATURE SPECIFICATION                              
      T-SPEC =  5.4315000D+02 IS MORE THAN THIN =  4.0956205D+02                

      UOS BLOCK HX-FL1   MODEL: HEATER                                            TIME =      0.90
      KODE = 2  NTRIAL =   4  T = 308.1500  P = 7.500000E+06  V = 0.999864      Q =-2.268852E+08

      UOS BLOCK FLASH-1  MODEL: FLASH2                                            TIME =      0.90
      KODE = 2  NTRIAL =   4  T = 308.1500  P = 7.340000E+06  V = 0.999885      Q =  381778.    

      UOS BLOCK SPLIT-1  MODEL: FSPLIT                                            TIME =      0.90
      SPLIT FRACTIONS:  0.75500D-01    0.92450D+00

      UOS BLOCK B2       MODEL: COMPR                                             TIME =      0.90
      OUTLET TEMP =   310.7       OUTLET PRES =  0.7500E+07   INDICATED HP =  0.4923E+07   BRAKE HP =  0.4923E+07
      ISENTR TEMP =   310.0      CALC ISENTR EFF =  0.7200      ISENTR HP =  0.3545E+07  HP =  0.3107E+09

      UOS BLOCK MIXER    MODEL: MIXER                                             TIME =      0.90
      KODE = 1  NTRIAL =   5  T = 312.3932  P = 7.500000E+06  V = 0.999990      Q =  0.00000    

      UOS BLOCK HEATX-1  MODEL: HEATX                                             TIME =      0.90
      SPECIFICATION: HOT OUTLET TEMP       323.15    
      FLOW TYPE:     MULTIPASS       
      HOT:  TIN=  409.57  PIN=0.10000E+07   TOUT=  323.15  POUT=0.10000E+07
      COLD: TIN=  312.39  PIN=0.75000E+07   TOUT=  317.39  POUT=0.75000E+07
      DUTY=0.12116E+08       FT=0.99950

      UOS BLOCK B1       MODEL: HEATER                                            TIME =      0.90
      KODE = 2  NTRIAL =   3  T = 523.1500  P = 7.500000E+06  V =  1.00000      Q = 4.993031E+08

      CONVERGENCE BLOCK $OLVER01  METHOD: WEGSTEIN                                TIME =      0.90
      ITER  11 For Tear Streams: HTX1-OUT  R-IN

      --FLASH TEAR STREAM HTX1-OUT
      NO. TEMP ITER =    5     TEMP =  323.150    
      KODE = 1  NTRIAL =   2  T = 323.1501  P = 1.000000E+06  V =  0.00000      Q =  0.00000    

      --FLASH TEAR STREAM R-IN    
      NO. TEMP ITER =    5     TEMP =  491.484    
      KODE = 1  NTRIAL =   6  T = 491.4838  P = 7.500000E+06  V =  1.00000      Q =  0.00000    

  LOOP $OLVER01 ITER   11:   9 VARS NOT CONVERGED, MAX ERR/TOL      297.73        TIME =      0.91

      UOS BLOCK RPLUG    MODEL: RPLUG                                             TIME =      0.91
        AT REACTOR EXIT :
        LENGTH =   15.000      DIAMETER =  0.10000      RESIDENCE TIME =   1.3597    
        PROCESS STREAM T =    489.05     P =   0.75000E+07 H =  -0.41357E+10 V =    1.0000    
        COOLANT STREAM T =    489.89     P =   0.10000E+07 H =  -0.43626E+09 V =    1.0000    
        MIN T =   475.916     AT Z/LENGTH =  0.456838     MAX T =   491.541     AT Z/LENGTH =  0.120632E-02

      UOS BLOCK HEATX-2  MODEL: HEATX                                             TIME =      0.99

  **  ERROR WHILE EXECUTING UNIT OPERATIONS BLOCK: "HEATX-2" (MODEL: "HEATX")   
                                                               (HXZCSP.1)       
      INVALID HOT STREAM TEMPERATURE SPECIFICATION                              
      T-SPEC =  5.4315000D+02 IS MORE THAN THIN =  4.8905425D+02                

      UOS BLOCK HX-FL1   MODEL: HEATER                                            TIME =      0.99
      KODE = 2  NTRIAL =   4  T = 308.1500  P = 7.500000E+06  V = 0.981761      Q =-5.012178E+08

      UOS BLOCK FLASH-1  MODEL: FLASH2                                            TIME =      0.99
      KODE = 2  NTRIAL =   4  T = 308.1500  P = 7.340000E+06  V = 0.981841      Q =  538624.    

      UOS BLOCK SPLIT-1  MODEL: FSPLIT                                            TIME =      0.99
      SPLIT FRACTIONS:  0.75500D-01    0.92450D+00

      UOS BLOCK B2       MODEL: COMPR                                             TIME =      0.99
      OUTLET TEMP =   310.7       OUTLET PRES =  0.7500E+07   INDICATED HP =  0.5299E+07   BRAKE HP =  0.5299E+07
      ISENTR TEMP =   310.0      CALC ISENTR EFF =  0.7200      ISENTR HP =  0.3815E+07  HP =  0.3605E+09

      UOS BLOCK MIXER    MODEL: MIXER                                             TIME =      0.99
      NO. TEMP ITER =    4     TEMP =  312.264    
      KODE = 1  NTRIAL =   4  T = 312.2642  P = 7.500000E+06  V =  1.00000      Q =  0.00000    

      UOS BLOCK HEATX-1  MODEL: HEATX                                             TIME =      0.99
      SPECIFICATION: HOT OUTLET TEMP       323.15    
      FLOW TYPE:     MULTIPASS       
      HOT:  TIN=  488.50  PIN=0.10000E+07   TOUT=  323.15  POUT=0.10000E+07
      COLD: TIN=  312.26  PIN=0.75000E+07   TOUT=  346.76  POUT=0.75000E+07
      DUTY=0.89237E+08       FT=0.99632

      UOS BLOCK B1       MODEL: HEATER                                            TIME =      0.99
      KODE = 2  NTRIAL =   3  T = 523.1500  P = 7.500000E+06  V =  1.00000      Q = 4.575881E+08

      CONVERGENCE BLOCK $OLVER01  METHOD: WEGSTEIN                                TIME =      0.99
      ITER  12 For Tear Streams: HTX1-OUT  R-IN

      --FLASH TEAR STREAM HTX1-OUT
      NO. TEMP ITER =    5     TEMP =  323.150    
      KODE = 1  NTRIAL =   2  T = 323.1501  P = 1.000000E+06  V =  0.00000      Q =  0.00000    

      --FLASH TEAR STREAM R-IN    
      NO. TEMP ITER =    5     TEMP =  551.447    
      KODE = 1  NTRIAL =   6  T = 551.4473  P = 7.500000E+06  V =  1.00000      Q =  0.00000    

  LOOP $OLVER01 ITER   12:   9 VARS NOT CONVERGED, MAX ERR/TOL      1640.8        TIME =      0.99

      UOS BLOCK RPLUG    MODEL: RPLUG                                             TIME =      1.00
        AT REACTOR EXIT :
        LENGTH =   15.000      DIAMETER =  0.10000      RESIDENCE TIME =   1.1280    
        PROCESS STREAM T =    592.68     P =   0.75000E+07 H =  -0.43042E+10 V =    1.0000    
        COOLANT STREAM T =    592.68     P =   0.10000E+07 H =  -0.42915E+09 V =    1.0000    
        MIN T =   551.447     AT Z/LENGTH =   0.00000     MAX T =   592.689     AT Z/LENGTH =  0.779031    

      UOS BLOCK HEATX-2  MODEL: HEATX                                             TIME =      1.08
      SPECIFICATION: HOT OUTLET TEMP       543.15    
      FLOW TYPE:     COUNTERCURRENT  

  **  ERROR WHILE EXECUTING UNIT OPERATIONS BLOCK: "HEATX-2" (MODEL: "HEATX")   
                                                               (HEATX.4)        
      TEMPERATURE CROSSOVER DETECTED                                            
      RE-CALCULATING WITH MINIMUM APPROACH TEMP. SPEC                           
      HOT:  TIN=  592.68  PIN=0.75000E+07   TOUT=  556.03  POUT=0.75000E+07
      COLD: TIN=  323.15  PIN=0.10000E+07   TOUT=  591.68  POUT=0.10000E+07
                              DUTY=0.96280E+08

      UOS BLOCK HX-FL1   MODEL: HEATER                                            TIME =      1.08
      KODE = 2  NTRIAL =   3  T = 308.1500  P = 7.500000E+06  V = 0.954360      Q =-7.549631E+08

      UOS BLOCK FLASH-1  MODEL: FLASH2                                            TIME =      1.08
      KODE = 2  NTRIAL =   3  T = 308.1500  P = 7.340000E+06  V = 0.954480      Q =  569940.    

      UOS BLOCK SPLIT-1  MODEL: FSPLIT                                            TIME =      1.08
      SPLIT FRACTIONS:  0.75500D-01    0.92450D+00

      UOS BLOCK B2       MODEL: COMPR                                             TIME =      1.08
      OUTLET TEMP =   310.7       OUTLET PRES =  0.7500E+07   INDICATED HP =  0.5111E+07   BRAKE HP =  0.5111E+07
      ISENTR TEMP =   310.0      CALC ISENTR EFF =  0.7200      ISENTR HP =  0.3680E+07  HP =  0.3362E+09

      UOS BLOCK MIXER    MODEL: MIXER                                             TIME =      1.08
      NO. TEMP ITER =    4     TEMP =  312.294    
      KODE = 1  NTRIAL =   4  T = 312.2936  P = 7.500000E+06  V =  1.00000      Q =  0.00000    

      UOS BLOCK HEATX-1  MODEL: HEATX                                             TIME =      1.08
      SPECIFICATION: HOT OUTLET TEMP       323.15    
      FLOW TYPE:     MULTIPASS       
      HOT:  TIN=  592.68  PIN=0.10000E+07   TOUT=  323.15  POUT=0.10000E+07
      COLD: TIN=  312.29  PIN=0.75000E+07   TOUT=  350.45  POUT=0.75000E+07
      DUTY=0.96349E+08       FT=0.99689

      UOS BLOCK B1       MODEL: HEATER                                            TIME =      1.08
      KODE = 2  NTRIAL =   3  T = 523.1500  P = 7.500000E+06  V =  1.00000      Q = 4.376263E+08

      CONVERGENCE BLOCK $OLVER01  METHOD: WEGSTEIN                                TIME =      1.08
      ITER  13 For Tear Streams: HTX1-OUT  R-IN

      --FLASH TEAR STREAM HTX1-OUT
      NO. TEMP ITER =    5     TEMP =  323.150    
      KODE = 1  NTRIAL =   2  T = 323.1501  P = 1.000000E+06  V =  0.00000      Q =  0.00000    

      --FLASH TEAR STREAM R-IN    
      NO. TEMP ITER =    5     TEMP =  519.958    
      KODE = 1  NTRIAL =   6  T = 519.9577  P = 7.500000E+06  V =  1.00000      Q =  0.00000    

  LOOP $OLVER01 ITER   13:   7 VARS NOT CONVERGED, MAX ERR/TOL     -113.84        TIME =      1.08

      UOS BLOCK RPLUG    MODEL: RPLUG                                             TIME =      1.09
        AT REACTOR EXIT :
        LENGTH =   15.000      DIAMETER =  0.10000      RESIDENCE TIME =   1.2163    
        PROCESS STREAM T =    582.89     P =   0.75000E+07 H =  -0.42627E+10 V =    1.0000    
        COOLANT STREAM T =    582.90     P =   0.10000E+07 H =  -0.42982E+09 V =    1.0000    
        MIN T =   519.958     AT Z/LENGTH =   0.00000     MAX T =   582.896     AT Z/LENGTH =  0.948993    

      UOS BLOCK HEATX-2  MODEL: HEATX                                             TIME =      1.16
      SPECIFICATION: HOT OUTLET TEMP       543.15    
      FLOW TYPE:     COUNTERCURRENT  

  **  ERROR WHILE EXECUTING UNIT OPERATIONS BLOCK: "HEATX-2" (MODEL: "HEATX")   
                                                               (HEATX.4)        
      TEMPERATURE CROSSOVER DETECTED                                            
      RE-CALCULATING WITH MINIMUM APPROACH TEMP. SPEC                           
      HOT:  TIN=  582.89  PIN=0.75000E+07   TOUT=  545.00  POUT=0.75000E+07
      COLD: TIN=  323.15  PIN=0.10000E+07   TOUT=  581.89  POUT=0.10000E+07
                              DUTY=0.95606E+08

      UOS BLOCK HX-FL1   MODEL: HEATER                                            TIME =      1.16
      KODE = 2  NTRIAL =   3  T = 308.1500  P = 7.500000E+06  V = 0.944460      Q =-7.178536E+08

      UOS BLOCK FLASH-1  MODEL: FLASH2                                            TIME =      1.16
      KODE = 2  NTRIAL =   3  T = 308.1500  P = 7.340000E+06  V = 0.944600      Q =  562402.    

      UOS BLOCK SPLIT-1  MODEL: FSPLIT                                            TIME =      1.16
      SPLIT FRACTIONS:  0.75500D-01    0.92450D+00

      UOS BLOCK B2       MODEL: COMPR                                             TIME =      1.16
      OUTLET TEMP =   310.7       OUTLET PRES =  0.7500E+07   INDICATED HP =  0.4781E+07   BRAKE HP =  0.4781E+07
      ISENTR TEMP =   310.0      CALC ISENTR EFF =  0.7200      ISENTR HP =  0.3442E+07  HP =  0.2947E+09

      UOS BLOCK MIXER    MODEL: MIXER                                             TIME =      1.16
      NO. TEMP ITER =    4     TEMP =  312.373    
      KODE = 1  NTRIAL =   4  T = 312.3725  P = 7.500000E+06  V =  1.00000      Q =  0.00000    

      UOS BLOCK HEATX-1  MODEL: HEATX                                             TIME =      1.16
      SPECIFICATION: HOT OUTLET TEMP       323.15    
      FLOW TYPE:     MULTIPASS       
      HOT:  TIN=  582.89  PIN=0.10000E+07   TOUT=  323.15  POUT=0.10000E+07
      COLD: TIN=  312.37  PIN=0.75000E+07   TOUT=  352.27  POUT=0.75000E+07
      DUTY=0.95675E+08       FT=0.99662

      UOS BLOCK B1       MODEL: HEATER                                            TIME =      1.16
      KODE = 2  NTRIAL =   3  T = 523.1500  P = 7.500000E+06  V =  1.00000      Q = 4.115179E+08

      CONVERGENCE BLOCK $OLVER01  METHOD: WEGSTEIN                                TIME =      1.17
      ITER  14 For Tear Streams: HTX1-OUT  R-IN

      --FLASH TEAR STREAM HTX1-OUT
      NO. TEMP ITER =    5     TEMP =  323.150    
      KODE = 1  NTRIAL =   2  T = 323.1501  P = 1.000000E+06  V =  0.00000      Q =  0.00000    

      --FLASH TEAR STREAM R-IN    
      NO. TEMP ITER =    5     TEMP =  473.943    
      KODE = 1  NTRIAL =   4  T = 473.9431  P = 7.500000E+06  V =  1.00000      Q =  0.00000    

  LOOP $OLVER01 ITER   14:   8 VARS NOT CONVERGED, MAX ERR/TOL     -113.25        TIME =      1.17

      UOS BLOCK RPLUG    MODEL: RPLUG                                             TIME =      1.17
        AT REACTOR EXIT :
        LENGTH =   15.000      DIAMETER =  0.10000      RESIDENCE TIME =   1.5027    
        PROCESS STREAM T =    456.02     P =   0.75000E+07 H =  -0.41502E+10 V =    1.0000    
        COOLANT STREAM T =    453.13     P =   0.10000E+07 H =  -0.46689E+09 V =   0.58854    
        MIN T =   456.017     AT Z/LENGTH =   1.00000     MAX T =   473.943     AT Z/LENGTH =   0.00000    

      UOS BLOCK HEATX-2  MODEL: HEATX                                             TIME =      1.21

  **  ERROR WHILE EXECUTING UNIT OPERATIONS BLOCK: "HEATX-2" (MODEL: "HEATX")   
                                                               (HXZCSP.1)       
      INVALID HOT STREAM TEMPERATURE SPECIFICATION                              
      T-SPEC =  5.4315000D+02 IS MORE THAN THIN =  4.5601698D+02                

      UOS BLOCK HX-FL1   MODEL: HEATER                                            TIME =      1.21
      KODE = 2  NTRIAL =   4  T = 308.1500  P = 7.500000E+06  V = 0.991608      Q =-3.744800E+08

      UOS BLOCK FLASH-1  MODEL: FLASH2                                            TIME =      1.21
      KODE = 2  NTRIAL =   4  T = 308.1500  P = 7.340000E+06  V = 0.991670      Q =  537687.    

      UOS BLOCK SPLIT-1  MODEL: FSPLIT                                            TIME =      1.21
      SPLIT FRACTIONS:  0.75500D-01    0.92450D+00

      UOS BLOCK B2       MODEL: COMPR                                             TIME =      1.21
      OUTLET TEMP =   310.7       OUTLET PRES =  0.7500E+07   INDICATED HP =  0.5093E+07   BRAKE HP =  0.5093E+07
      ISENTR TEMP =   310.0      CALC ISENTR EFF =  0.7200      ISENTR HP =  0.3667E+07  HP =  0.3341E+09

      UOS BLOCK MIXER    MODEL: MIXER                                             TIME =      1.21
      NO. TEMP ITER =    4     TEMP =  312.293    
      KODE = 1  NTRIAL =   4  T = 312.2928  P = 7.500000E+06  V =  1.00000      Q =  0.00000    

      UOS BLOCK HEATX-1  MODEL: HEATX                                             TIME =      1.21
      SPECIFICATION: HOT OUTLET TEMP       323.15    
      FLOW TYPE:     MULTIPASS       
      HOT:  TIN=  453.13  PIN=0.10000E+07   TOUT=  323.15  POUT=0.10000E+07
      COLD: TIN=  312.29  PIN=0.75000E+07   TOUT=  335.50  POUT=0.75000E+07
      DUTY=0.58608E+08       FT=0.99748

      UOS BLOCK B1       MODEL: HEATER                                            TIME =      1.22
      KODE = 2  NTRIAL =   3  T = 523.1500  P = 7.500000E+06  V =  1.00000      Q = 4.751068E+08

      CONVERGENCE BLOCK $OLVER01  METHOD: WEGSTEIN                                TIME =      1.22
      ITER  15 For Tear Streams: HTX1-OUT  R-IN

      --FLASH TEAR STREAM HTX1-OUT
      NO. TEMP ITER =    5     TEMP =  323.150    
      KODE = 1  NTRIAL =   2  T = 323.1501  P = 1.000000E+06  V =  0.00000      Q =  0.00000    

      --FLASH TEAR STREAM R-IN    
      NO. TEMP ITER =    6     TEMP =  525.236    
      KODE = 1  NTRIAL =   6  T = 525.2363  P = 7.500000E+06  V =  1.00000      Q =  0.00000    

  LOOP $OLVER01 ITER   15:   9 VARS NOT CONVERGED, MAX ERR/TOL      386.94        TIME =      1.22

      UOS BLOCK RPLUG    MODEL: RPLUG                                             TIME =      1.22
        AT REACTOR EXIT :
        LENGTH =   15.000      DIAMETER =  0.10000      RESIDENCE TIME =   1.2132    
        PROCESS STREAM T =    583.15     P =   0.75000E+07 H =  -0.43240E+10 V =    1.0000    
        COOLANT STREAM T =    583.15     P =   0.10000E+07 H =  -0.42980E+09 V =    1.0000    
        MIN T =   525.236     AT Z/LENGTH =   0.00000     MAX T =   583.152     AT Z/LENGTH =  0.932815    

      UOS BLOCK HEATX-2  MODEL: HEATX                                             TIME =      1.30
      SPECIFICATION: HOT OUTLET TEMP       543.15    
      FLOW TYPE:     COUNTERCURRENT  

  **  ERROR WHILE EXECUTING UNIT OPERATIONS BLOCK: "HEATX-2" (MODEL: "HEATX")   
                                                               (HEATX.4)        
      TEMPERATURE CROSSOVER DETECTED                                            
      RE-CALCULATING WITH MINIMUM APPROACH TEMP. SPEC                           
      HOT:  TIN=  583.15  PIN=0.75000E+07   TOUT=  545.29  POUT=0.75000E+07
      COLD: TIN=  323.15  PIN=0.10000E+07   TOUT=  582.15  POUT=0.10000E+07
                              DUTY=0.95624E+08

      UOS BLOCK HX-FL1   MODEL: HEATER                                            TIME =      1.30
      KODE = 2  NTRIAL =   4  T = 308.1500  P = 7.500000E+06  V = 0.945315      Q =-7.182977E+08

      UOS BLOCK FLASH-1  MODEL: FLASH2                                            TIME =      1.31
      KODE = 2  NTRIAL =   4  T = 308.1500  P = 7.340000E+06  V = 0.945451      Q =  569850.    

      UOS BLOCK SPLIT-1  MODEL: FSPLIT                                            TIME =      1.31
      SPLIT FRACTIONS:  0.75500D-01    0.92450D+00

      UOS BLOCK B2       MODEL: COMPR                                             TIME =      1.31
      OUTLET TEMP =   310.7       OUTLET PRES =  0.7500E+07   INDICATED HP =  0.4786E+07   BRAKE HP =  0.4786E+07
      ISENTR TEMP =   310.0      CALC ISENTR EFF =  0.7200      ISENTR HP =  0.3446E+07  HP =  0.2955E+09

      UOS BLOCK MIXER    MODEL: MIXER                                             TIME =      1.31
      NO. TEMP ITER =    4     TEMP =  312.364    
      KODE = 1  NTRIAL =   4  T = 312.3641  P = 7.500000E+06  V =  1.00000      Q =  0.00000    

      UOS BLOCK HEATX-1  MODEL: HEATX                                             TIME =      1.31
      SPECIFICATION: HOT OUTLET TEMP       323.15    
      FLOW TYPE:     MULTIPASS       
      HOT:  TIN=  583.15  PIN=0.10000E+07   TOUT=  323.15  POUT=0.10000E+07
      COLD: TIN=  312.36  PIN=0.75000E+07   TOUT=  352.14  POUT=0.75000E+07
      DUTY=0.95693E+08       FT=0.99664

      UOS BLOCK B1       MODEL: HEATER                                            TIME =      1.31
      KODE = 2  NTRIAL =   3  T = 523.1500  P = 7.500000E+06  V =  1.00000      Q = 4.132322E+08

      CONVERGENCE BLOCK $OLVER01  METHOD: WEGSTEIN                                TIME =      1.31
      ITER  16 For Tear Streams: HTX1-OUT  R-IN

      --FLASH TEAR STREAM HTX1-OUT
      NO. TEMP ITER =    5     TEMP =  323.150    
      KODE = 1  NTRIAL =   2  T = 323.1501  P = 1.000000E+06  V =  0.00000      Q =  0.00000    

      --FLASH TEAR STREAM R-IN    
      NO. TEMP ITER =    5     TEMP =  523.150    
      KODE = 1  NTRIAL =   4  T = 523.1500  P = 7.500000E+06  V =  1.00000      Q =  0.00000    

  LOOP $OLVER01 ITER   16:   8 VARS NOT CONVERGED, MAX ERR/TOL     -216.00        TIME =      1.31

      UOS BLOCK RPLUG    MODEL: RPLUG                                             TIME =      1.31
        AT REACTOR EXIT :
        LENGTH =   15.000      DIAMETER =  0.10000      RESIDENCE TIME =   1.2870    
        PROCESS STREAM T =    580.00     P =   0.75000E+07 H =  -0.41760E+10 V =    1.0000    
        COOLANT STREAM T =    579.99     P =   0.10000E+07 H =  -0.43002E+09 V =    1.0000    
        MIN T =   523.150     AT Z/LENGTH =   0.00000     MAX T =   580.002     AT Z/LENGTH =  0.457466    

      UOS BLOCK HEATX-2  MODEL: HEATX                                             TIME =      1.39
      SPECIFICATION: HOT OUTLET TEMP       543.15    
      FLOW TYPE:     COUNTERCURRENT  
      HOT:  TIN=  580.00  PIN=0.75000E+07   TOUT=  543.15  POUT=0.75000E+07
      COLD: TIN=  323.15  PIN=0.10000E+07   TOUT=  482.32  POUT=0.10000E+07
                              DUTY=0.88818E+08

      UOS BLOCK HX-FL1   MODEL: HEATER                                            TIME =      1.39
      KODE = 2  NTRIAL =   3  T = 308.1500  P = 7.500000E+06  V = 0.942850      Q =-6.845331E+08

      UOS BLOCK FLASH-1  MODEL: FLASH2                                            TIME =      1.39
      KODE = 2  NTRIAL =   3  T = 308.1500  P = 7.340000E+06  V = 0.942990      Q =  553265.    

      UOS BLOCK SPLIT-1  MODEL: FSPLIT                                            TIME =      1.39
      SPLIT FRACTIONS:  0.75500D-01    0.92450D+00

      UOS BLOCK B2       MODEL: COMPR                                             TIME =      1.39
      OUTLET TEMP =   310.6       OUTLET PRES =  0.7500E+07   INDICATED HP =  0.4519E+07   BRAKE HP =  0.4519E+07
      ISENTR TEMP =   310.0      CALC ISENTR EFF =  0.7200      ISENTR HP =  0.3254E+07  HP =  0.2639E+09

      UOS BLOCK MIXER    MODEL: MIXER                                             TIME =      1.39
      NO. TEMP ITER =    4     TEMP =  312.437    
      KODE = 1  NTRIAL =   4  T = 312.4365  P = 7.500000E+06  V =  1.00000      Q =  0.00000    

      UOS BLOCK HEATX-1  MODEL: HEATX                                             TIME =      1.39
      SPECIFICATION: HOT OUTLET TEMP       323.15    
      FLOW TYPE:     MULTIPASS       
[...]
      KODE = 3  NTRIAL =   5  T = 366.8902  P =  101325.      V =  0.00000      BETA =  1.00000      Q = -2708.69    
      KODE = 3  NTRIAL =   5  T = 369.6846  P =  101325.      V =  0.00000      BETA =  1.00000      Q = -2726.36    
      KODE = 3  NTRIAL =   3  T = 373.1678  P =  101325.      V =  0.00000      BETA =  1.00000      Q = -2736.02    

      BEGIN CALCULATIONS FOR PROP-TABLE BINRY-2                                   TIME =   2301.39
      KODE = 3  NTRIAL =   3  T = 373.0963  P =  101325.      V =  0.00000      BETA =  1.00000      Q =  0.00000    
      KODE = 3  NTRIAL =   5  T = 369.2568  P =  101325.      V =  0.00000      BETA =  1.00000      Q =  2745.40    
      KODE = 3  NTRIAL =   5  T = 366.2681  P =  101325.      V =  0.00000      BETA =  1.00000      Q =  2738.94    
      KODE = 3  NTRIAL =   5  T = 363.8573  P =  101325.      V =  0.00000      BETA =  1.00000      Q =  2722.97    
      KODE = 3  NTRIAL =   5  T = 361.8590  P =  101325.      V =  0.00000      BETA =  1.00000      Q =  2701.56    
      KODE = 3  NTRIAL =   5  T = 360.1667  P =  101325.      V =  0.00000      BETA =  1.00000      Q =  2676.92    
      KODE = 3  NTRIAL =   5  T = 358.7080  P =  101325.      V =  0.00000      BETA =  1.00000      Q =  2650.35    
      KODE = 3  NTRIAL =   5  T = 357.4321  P =  101325.      V =  0.00000      BETA =  1.00000      Q =  2622.65    
      KODE = 3  NTRIAL =   5  T = 356.3019  P =  101325.      V =  0.00000      BETA =  1.00000      Q =  2594.33    
      KODE = 3  NTRIAL =   5  T = 355.2898  P =  101325.      V =  0.00000      BETA =  1.00000      Q =  2565.73    
      KODE = 3  NTRIAL =   5  T = 354.3745  P =  101325.      V =  0.00000      BETA =  1.00000      Q =  2537.09    
      KODE = 3  NTRIAL =   5  T = 353.5397  P =  101325.      V =  0.00000      BETA =  1.00000      Q =  2508.57    
      KODE = 3  NTRIAL =   5  T = 352.7725  P =  101325.      V =  0.00000      BETA =  1.00000      Q =  2480.27    
      KODE = 3  NTRIAL =   5  T = 352.0624  P =  101325.      V =  0.00000      BETA =  1.00000      Q =  2452.28    
      KODE = 3  NTRIAL =   4  T = 351.4010  P =  101325.      V =  0.00000      BETA =  1.00000      Q =  2424.65    
      KODE = 3  NTRIAL =   5  T = 350.7814  P =  101325.      V =  0.00000      BETA =  1.00000      Q =  2397.42    
      KODE = 3  NTRIAL =   5  T = 350.1979  P =  101325.      V =  0.00000      BETA =  1.00000      Q =  2370.62    
      KODE = 3  NTRIAL =   5  T = 349.6457  P =  101325.      V =  0.00000      BETA =  1.00000      Q =  2344.27    
      KODE = 3  NTRIAL =   5  T = 349.1209  P =  101325.      V =  0.00000      BETA =  1.00000      Q =  2318.37    
      KODE = 3  NTRIAL =   5  T = 348.6200  P =  101325.      V =  0.00000      BETA =  1.00000      Q =  2292.93    
      KODE = 3  NTRIAL =   5  T = 348.1403  P =  101325.      V =  0.00000      BETA =  1.00000      Q =  2267.95    
      KODE = 3  NTRIAL =   5  T = 347.6791  P =  101325.      V =  0.00000      BETA =  1.00000      Q =  2243.43    
      KODE = 3  NTRIAL =   5  T = 347.2344  P =  101325.      V =  0.00000      BETA =  1.00000      Q =  2219.37    
      KODE = 3  NTRIAL =   5  T = 346.8044  P =  101325.      V =  0.00000      BETA =  1.00000      Q =  2195.76    
      KODE = 3  NTRIAL =   5  T = 346.3875  P =  101325.      V =  0.00000      BETA =  1.00000      Q =  2172.60    
      KODE = 3  NTRIAL =   5  T = 345.9824  P =  101325.      V =  0.00000      BETA =  1.00000      Q =  2149.87    
      KODE = 3  NTRIAL =   5  T = 345.5877  P =  101325.      V =  0.00000      BETA =  1.00000      Q =  2127.58    
      KODE = 3  NTRIAL =   5  T = 345.2025  P =  101325.      V =  0.00000      BETA =  1.00000      Q =  2105.71    
      KODE = 3  NTRIAL =   5  T = 344.8258  P =  101325.      V =  0.00000      BETA =  1.00000      Q =  2084.25    
      KODE = 3  NTRIAL =   5  T = 344.4569  P =  101325.      V =  0.00000      BETA =  1.00000      Q =  2063.19    
      KODE = 3  NTRIAL =   5  T = 344.0949  P =  101325.      V =  0.00000      BETA =  1.00000      Q =  2042.53    
      KODE = 3  NTRIAL =   5  T = 343.7394  P =  101325.      V =  0.00000      BETA =  1.00000      Q =  2022.25    
      KODE = 3  NTRIAL =   5  T = 343.3896  P =  101325.      V =  0.00000      BETA =  1.00000      Q =  2002.34    
      KODE = 3  NTRIAL =   5  T = 343.0451  P =  101325.      V =  0.00000      BETA =  1.00000      Q =  1982.81    
      KODE = 3  NTRIAL =   5  T = 342.7055  P =  101325.      V =  0.00000      BETA =  1.00000      Q =  1963.63    
      KODE = 3  NTRIAL =   5  T = 342.3703  P =  101325.      V =  0.00000      BETA =  1.00000      Q =  1944.80    
      KODE = 3  NTRIAL =   5  T = 342.0392  P =  101325.      V =  0.00000      BETA =  1.00000      Q =  1926.31    
      KODE = 3  NTRIAL =   5  T = 341.7120  P =  101325.      V =  0.00000      BETA =  1.00000      Q =  1908.15    
      KODE = 3  NTRIAL =   5  T = 341.3882  P =  101325.      V =  0.00000      BETA =  1.00000      Q =  1890.31    
      KODE = 3  NTRIAL =   5  T = 341.0677  P =  101325.      V =  0.00000      BETA =  1.00000      Q =  1872.78    
      KODE = 3  NTRIAL =   5  T = 340.7502  P =  101325.      V =  0.00000      BETA =  1.00000      Q =  1855.57    
      KODE = 3  NTRIAL =   5  T = 340.4355  P =  101325.      V =  0.00000      BETA =  1.00000      Q =  1838.65    
      KODE = 3  NTRIAL =   5  T = 340.1235  P =  101325.      V =  0.00000      BETA =  1.00000      Q =  1822.02    
      KODE = 3  NTRIAL =   6  T = 339.8139  P =  101325.      V =  0.00000      BETA =  1.00000      Q =  1805.67    
      KODE = 3  NTRIAL =   6  T = 339.5066  P =  101325.      V =  0.00000      BETA =  1.00000      Q =  1789.60    
      KODE = 3  NTRIAL =   6  T = 339.2016  P =  101325.      V =  0.00000      BETA =  1.00000      Q =  1773.80    
      KODE = 3  NTRIAL =   6  T = 338.8986  P =  101325.      V =  0.00000      BETA =  1.00000      Q =  1758.26    
      KODE = 3  NTRIAL =   6  T = 338.5976  P =  101325.      V =  0.00000      BETA =  1.00000      Q =  1742.97    
      KODE = 3  NTRIAL =   6  T = 338.2985  P =  101325.      V =  0.00000      BETA =  1.00000      Q =  1727.94    
      KODE = 3  NTRIAL =   6  T = 338.0012  P =  101325.      V =  0.00000      BETA =  1.00000      Q =  1713.15    
      KODE = 3  NTRIAL =   4  T = 337.7056  P =  101325.      V =  0.00000      BETA =  1.00000      Q =  1698.59    

 Results generated                                                                Time =   2301.42

 Report Writer entered                                                            Time =   2302.93

      BEGIN HEATX TQ-CURVE REPORT FOR BLOCK HEATX-1 

      BEGIN COLD-TQCURVE INLET   

      BEGIN HOT-TQCURVE  INLET   
      END HEATX TQ-CURVE REPORT FOR BLOCK HEATX-1 

      BEGIN HEATX TQ-CURVE REPORT FOR BLOCK HEATX-2 

      BEGIN COLD-TQCURVE INLET   

      BEGIN HOT-TQCURVE  INLET   
      END HEATX TQ-CURVE REPORT FOR BLOCK HEATX-2 

      BEGIN HEATX TQ-CURVE REPORT FOR BLOCK HEATX-3 

      BEGIN COLD-TQCURVE INLET   

      BEGIN HOT-TQCURVE  INLET   
      END HEATX TQ-CURVE REPORT FOR BLOCK HEATX-3 
      STREAM R-IN WILL BE FLASHED FOR PROPERTY CALCULATIONS.
      KODE = 2  NTRIAL =   4  T = 523.1500  P = 7.500000E+06  V =  1.00000      Q = -21126.3    

      BEGIN CALCULATIONS FOR PROP-TABLE BINRY-1                                   TIME =   2303.11
      KODE = 3  NTRIAL =   4  T = 337.6848  P =  101325.      V =  0.00000      BETA =  1.00000      Q =  0.00000    
      KODE = 3  NTRIAL =   6  T = 337.9895  P =  101325.      V =  0.00000      BETA =  1.00000      Q = -1674.76    
      KODE = 3  NTRIAL =   5  T = 338.2964  P =  101325.      V =  0.00000      BETA =  1.00000      Q = -1689.50    
      KODE = 3  NTRIAL =   5  T = 338.6053  P =  101325.      V =  0.00000      BETA =  1.00000      Q = -1704.49    
      KODE = 3  NTRIAL =   5  T = 338.9165  P =  101325.      V =  0.00000      BETA =  1.00000      Q = -1719.72    
      KODE = 3  NTRIAL =   5  T = 339.2300  P =  101325.      V =  0.00000      BETA =  1.00000      Q = -1735.21    
      KODE = 3  NTRIAL =   5  T = 339.5459  P =  101325.      V =  0.00000      BETA =  1.00000      Q = -1750.97    
      KODE = 3  NTRIAL =   5  T = 339.8643  P =  101325.      V =  0.00000      BETA =  1.00000      Q = -1766.99    
      KODE = 3  NTRIAL =   5  T = 340.1855  P =  101325.      V =  0.00000      BETA =  1.00000      Q = -1783.28    
      KODE = 3  NTRIAL =   5  T = 340.5094  P =  101325.      V =  0.00000      BETA =  1.00000      Q = -1799.86    
      KODE = 3  NTRIAL =   5  T = 340.8364  P =  101325.      V =  0.00000      BETA =  1.00000      Q = -1816.72    
      KODE = 3  NTRIAL =   5  T = 341.1665  P =  101325.      V =  0.00000      BETA =  1.00000      Q = -1833.88    
      KODE = 3  NTRIAL =   5  T = 341.5000  P =  101325.      V =  0.00000      BETA =  1.00000      Q = -1851.34    
      KODE = 3  NTRIAL =   5  T = 341.8371  P =  101325.      V =  0.00000      BETA =  1.00000      Q = -1869.11    
      KODE = 3  NTRIAL =   5  T = 342.1781  P =  101325.      V =  0.00000      BETA =  1.00000      Q = -1887.20    
      KODE = 3  NTRIAL =   5  T = 342.5232  P =  101325.      V =  0.00000      BETA =  1.00000      Q = -1905.60    
      KODE = 3  NTRIAL =   5  T = 342.8728  P =  101325.      V =  0.00000      BETA =  1.00000      Q = -1924.35    
      KODE = 3  NTRIAL =   5  T = 343.2273  P =  101325.      V =  0.00000      BETA =  1.00000      Q = -1943.43    
      KODE = 3  NTRIAL =   5  T = 343.5870  P =  101325.      V =  0.00000      BETA =  1.00000      Q = -1962.85    
      KODE = 3  NTRIAL =   5  T = 343.9525  P =  101325.      V =  0.00000      BETA =  1.00000      Q = -1982.64    
      KODE = 3  NTRIAL =   5  T = 344.3242  P =  101325.      V =  0.00000      BETA =  1.00000      Q = -2002.79    
      KODE = 3  NTRIAL =   5  T = 344.7027  P =  101325.      V =  0.00000      BETA =  1.00000      Q = -2023.31    
      KODE = 3  NTRIAL =   5  T = 345.0887  P =  101325.      V =  0.00000      BETA =  1.00000      Q = -2044.21    
      KODE = 3  NTRIAL =   5  T = 345.4830  P =  101325.      V =  0.00000      BETA =  1.00000      Q = -2065.50    
      KODE = 3  NTRIAL =   5  T = 345.8863  P =  101325.      V =  0.00000      BETA =  1.00000      Q = -2087.18    
      KODE = 3  NTRIAL =   5  T = 346.2997  P =  101325.      V =  0.00000      BETA =  1.00000      Q = -2109.28    
      KODE = 3  NTRIAL =   5  T = 346.7242  P =  101325.      V =  0.00000      BETA =  1.00000      Q = -2131.78    
      KODE = 3  NTRIAL =   5  T = 347.1611  P =  101325.      V =  0.00000      BETA =  1.00000      Q = -2154.71    
      KODE = 3  NTRIAL =   5  T = 347.6118  P =  101325.      V =  0.00000      BETA =  1.00000      Q = -2178.07    
      KODE = 3  NTRIAL =   5  T = 348.0779  P =  101325.      V =  0.00000      BETA =  1.00000      Q = -2201.86    
      KODE = 3  NTRIAL =   5  T = 348.5614  P =  101325.      V =  0.00000      BETA =  1.00000      Q = -2226.09    
      KODE = 3  NTRIAL =   5  T = 349.0644  P =  101325.      V =  0.00000      BETA =  1.00000      Q = -2250.76    
      KODE = 3  NTRIAL =   5  T = 349.5894  P =  101325.      V =  0.00000      BETA =  1.00000      Q = -2275.88    
      KODE = 3  NTRIAL =   5  T = 350.1393  P =  101325.      V =  0.00000      BETA =  1.00000      Q = -2301.45    
      KODE = 3  NTRIAL =   5  T = 350.7176  P =  101325.      V =  0.00000      BETA =  1.00000      Q = -2327.47    
      KODE = 3  NTRIAL =   5  T = 351.3283  P =  101325.      V =  0.00000      BETA =  1.00000      Q = -2353.92    
      KODE = 3  NTRIAL =   4  T = 351.9760  P =  101325.      V =  0.00000      BETA =  1.00000      Q = -2380.81    
      KODE = 3  NTRIAL =   5  T = 352.6664  P =  101325.      V =  0.00000      BETA =  1.00000      Q = -2408.11    
      KODE = 3  NTRIAL =   5  T = 353.4062  P =  101325.      V =  0.00000      BETA =  1.00000      Q = -2435.79    
      KODE = 3  NTRIAL =   5  T = 354.2035  P =  101325.      V =  0.00000      BETA =  1.00000      Q = -2463.83    
      KODE = 3  NTRIAL =   5  T = 355.0682  P =  101325.      V =  0.00000      BETA =  1.00000      Q = -2492.16    
      KODE = 3  NTRIAL =   5  T = 356.0125  P =  101325.      V =  0.00000      BETA =  1.00000      Q = -2520.72    
      KODE = 3  NTRIAL =   5  T = 357.0515  P =  101325.      V =  0.00000      BETA =  1.00000      Q = -2549.40    
      KODE = 3  NTRIAL =   5  T = 358.2043  P =  101325.      V =  0.00000      BETA =  1.00000      Q = -2578.05    
      KODE = 3  NTRIAL =   5  T = 359.4955  P =  101325.      V =  0.00000      BETA =  1.00000      Q = -2606.46    
      KODE = 3  NTRIAL =   5  T = 360.9573  P =  101325.      V =  0.00000      BETA =  1.00000      Q = -2634.32    
      KODE = 3  NTRIAL =   5  T = 362.6330  P =  101325.      V =  0.00000      BETA =  1.00000      Q = -2661.19    
      KODE = 3  NTRIAL =   5  T = 364.5822  P =  101325.      V =  0.00000      BETA =  1.00000      Q = -2686.35    
      KODE = 3  NTRIAL =   5  T = 366.8902  P =  101325.      V =  0.00000      BETA =  1.00000      Q = -2708.69    
      KODE = 3  NTRIAL =   5  T = 369.6846  P =  101325.      V =  0.00000      BETA =  1.00000      Q = -2726.36    
      KODE = 3  NTRIAL =   3  T = 373.1678  P =  101325.      V =  0.00000      BETA =  1.00000      Q = -2736.02    

      BEGIN CALCULATIONS FOR PROP-TABLE BINRY-2                                   TIME =   2303.11
      KODE = 3  NTRIAL =   3  T = 373.0963  P =  101325.      V =  0.00000      BETA =  1.00000      Q =  0.00000    
      KODE = 3  NTRIAL =   5  T = 369.2568  P =  101325.      V =  0.00000      BETA =  1.00000      Q =  2745.40    
      KODE = 3  NTRIAL =   5  T = 366.2681  P =  101325.      V =  0.00000      BETA =  1.00000      Q =  2738.94    
      KODE = 3  NTRIAL =   5  T = 363.8573  P =  101325.      V =  0.00000      BETA =  1.00000      Q =  2722.97    
      KODE = 3  NTRIAL =   5  T = 361.8590  P =  101325.      V =  0.00000      BETA =  1.00000      Q =  2701.56    
      KODE = 3  NTRIAL =   5  T = 360.1667  P =  101325.      V =  0.00000      BETA =  1.00000      Q =  2676.92    
      KODE = 3  NTRIAL =   5  T = 358.7080  P =  101325.      V =  0.00000      BETA =  1.00000      Q =  2650.35    
      KODE = 3  NTRIAL =   5  T = 357.4321  P =  101325.      V =  0.00000      BETA =  1.00000      Q =  2622.65    
      KODE = 3  NTRIAL =   5  T = 356.3019  P =  101325.      V =  0.00000      BETA =  1.00000      Q =  2594.33    
      KODE = 3  NTRIAL =   5  T = 355.2898  P =  101325.      V =  0.00000      BETA =  1.00000      Q =  2565.73    
      KODE = 3  NTRIAL =   5  T = 354.3745  P =  101325.      V =  0.00000      BETA =  1.00000      Q =  2537.09    
      KODE = 3  NTRIAL =   5  T = 353.5397  P =  101325.      V =  0.00000      BETA =  1.00000      Q =  2508.57    
      KODE = 3  NTRIAL =   5  T = 352.7725  P =  101325.      V =  0.00000      BETA =  1.00000      Q =  2480.27    
      KODE = 3  NTRIAL =   5  T = 352.0624  P =  101325.      V =  0.00000      BETA =  1.00000      Q =  2452.28    
      KODE = 3  NTRIAL =   4  T = 351.4010  P =  101325.      V =  0.00000      BETA =  1.00000      Q =  2424.65    
      KODE = 3  NTRIAL =   5  T = 350.7814  P =  101325.      V =  0.00000      BETA =  1.00000      Q =  2397.42    
      KODE = 3  NTRIAL =   5  T = 350.1979  P =  101325.      V =  0.00000      BETA =  1.00000      Q =  2370.62    
      KODE = 3  NTRIAL =   5  T = 349.6457  P =  101325.      V =  0.00000      BETA =  1.00000      Q =  2344.27    
      KODE = 3  NTRIAL =   5  T = 349.1209  P =  101325.      V =  0.00000      BETA =  1.00000      Q =  2318.37    
      KODE = 3  NTRIAL =   5  T = 348.6200  P =  101325.      V =  0.00000      BETA =  1.00000      Q =  2292.93    
      KODE = 3  NTRIAL =   5  T = 348.1403  P =  101325.      V =  0.00000      BETA =  1.00000      Q =  2267.95    
      KODE = 3  NTRIAL =   5  T = 347.6791  P =  101325.      V =  0.00000      BETA =  1.00000      Q =  2243.43    
      KODE = 3  NTRIAL =   5  T = 347.2344  P =  101325.      V =  0.00000      BETA =  1.00000      Q =  2219.37    
      KODE = 3  NTRIAL =   5  T = 346.8044  P =  101325.      V =  0.00000      BETA =  1.00000      Q =  2195.76    
      KODE = 3  NTRIAL =   5  T = 346.3875  P =  101325.      V =  0.00000      BETA =  1.00000      Q =  2172.60    
      KODE = 3  NTRIAL =   5  T = 345.9824  P =  101325.      V =  0.00000      BETA =  1.00000      Q =  2149.87    
      KODE = 3  NTRIAL =   5  T = 345.5877  P =  101325.      V =  0.00000      BETA =  1.00000      Q =  2127.58    
      KODE = 3  NTRIAL =   5  T = 345.2025  P =  101325.      V =  0.00000      BETA =  1.00000      Q =  2105.71    
      KODE = 3  NTRIAL =   5  T = 344.8258  P =  101325.      V =  0.00000      BETA =  1.00000      Q =  2084.25    
      KODE = 3  NTRIAL =   5  T = 344.4569  P =  101325.      V =  0.00000      BETA =  1.00000      Q =  2063.19    
      KODE = 3  NTRIAL =   5  T = 344.0949  P =  101325.      V =  0.00000      BETA =  1.00000      Q =  2042.53    
      KODE = 3  NTRIAL =   5  T = 343.7394  P =  101325.      V =  0.00000      BETA =  1.00000      Q =  2022.25    
      KODE = 3  NTRIAL =   5  T = 343.3896  P =  101325.      V =  0.00000      BETA =  1.00000      Q =  2002.34    
      KODE = 3  NTRIAL =   5  T = 343.0451  P =  101325.      V =  0.00000      BETA =  1.00000      Q =  1982.81    
      KODE = 3  NTRIAL =   5  T = 342.7055  P =  101325.      V =  0.00000      BETA =  1.00000      Q =  1963.63    
      KODE = 3  NTRIAL =   5  T = 342.3703  P =  101325.      V =  0.00000      BETA =  1.00000      Q =  1944.80    
      KODE = 3  NTRIAL =   5  T = 342.0392  P =  101325.      V =  0.00000      BETA =  1.00000      Q =  1926.31    
      KODE = 3  NTRIAL =   5  T = 341.7120  P =  101325.      V =  0.00000      BETA =  1.00000      Q =  1908.15    
      KODE = 3  NTRIAL =   5  T = 341.3882  P =  101325.      V =  0.00000      BETA =  1.00000      Q =  1890.31    
      KODE = 3  NTRIAL =   5  T = 341.0677  P =  101325.      V =  0.00000      BETA =  1.00000      Q =  1872.78    
      KODE = 3  NTRIAL =   5  T = 340.7502  P =  101325.      V =  0.00000      BETA =  1.00000      Q =  1855.57    
      KODE = 3  NTRIAL =   5  T = 340.4355  P =  101325.      V =  0.00000      BETA =  1.00000      Q =  1838.65    
      KODE = 3  NTRIAL =   5  T = 340.1235  P =  101325.      V =  0.00000      BETA =  1.00000      Q =  1822.02    
      KODE = 3  NTRIAL =   6  T = 339.8139  P =  101325.      V =  0.00000      BETA =  1.00000      Q =  1805.67    
      KODE = 3  NTRIAL =   6  T = 339.5066  P =  101325.      V =  0.00000      BETA =  1.00000      Q =  1789.60    
      KODE = 3  NTRIAL =   6  T = 339.2016  P =  101325.      V =  0.00000      BETA =  1.00000      Q =  1773.80    
      KODE = 3  NTRIAL =   6  T = 338.8986  P =  101325.      V =  0.00000      BETA =  1.00000      Q =  1758.26    
      KODE = 3  NTRIAL =   6  T = 338.5976  P =  101325.      V =  0.00000      BETA =  1.00000      Q =  1742.97    
      KODE = 3  NTRIAL =   6  T = 338.2985  P =  101325.      V =  0.00000      BETA =  1.00000      Q =  1727.94    
      KODE = 3  NTRIAL =   6  T = 338.0012  P =  101325.      V =  0.00000      BETA =  1.00000      Q =  1713.15    
      KODE = 3  NTRIAL =   4  T = 337.7056  P =  101325.      V =  0.00000      BETA =  1.00000      Q =  1698.59    

 Results generated                                                                Time =   2303.14

RUN SAVED



 *** SUMMARY OF ERRORS ***

                  PHYSICAL
                  PROPERTY  SYSTEM  SIMULATION
 TERMINAL ERRORS      0        0         0
   SEVERE ERRORS      0        0      2313
          ERRORS      0        0        30
        WARNINGS      0        0        17
